/*--------------------------------*- C++ -*----------------------------------*\
| =========                 |                                                 |
| \\      /  F ield         | OpenFOAM: The Open Source CFD Toolbox           |
|  \\    /   O peration     | Version:  v2306                                 |
|   \\  /    A nd           | Website:  www.openfoam.com                      |
|    \\/     M anipulation  |                                                 |
\*---------------------------------------------------------------------------*/
FoamFile
{
    format      ascii;
    version     2.0;
    class       dictionary;
    object      topoSetDict;
}
// * * * * * * * * * * * * * * * * * * * * * * * * * * * * * * * * * * * * * //

actions
(
    {
        name    baseFace;
        action  new;
        type    faceSet;
        source  patchToFace;
        sourceInfo
        {
            name   "baseFront";
        }
    }

    {
        name    extrusionFuel;
        action  new;
        type    faceSet;
        source  faceToFace;
        sourceInfo
        {
            set baseFace;
        }
    }

    {
        name    extrusionFuel;
        action  subset;
        type    faceSet;
        source  boxToFace;
        sourceInfo
        {
            box  (-0.001 0.018 -0.034) (0.001 0.046 0.034);
        }
    }

    {
        name    extrusionAir;
        action  new;
        type    faceSet;
        source  faceToFace;
        sourceInfo
        {
            set baseFace;
        }
    }

    {
        name    extrusionAir;
        action  subset;
        type    faceSet;
        source  boxToFace;
        sourceInfo
        {
            box  (-0.001 -0.032 -0.022) (0.001 0.012 0.022);
        }
    }

);

// ************************************************************************* //
