/*--------------------------------*- C++ -*----------------------------------*\
| =========                 |                                                 |
| \\      /  F ield         | OpenFOAM: The Open Source CFD Toolbox           |
|  \\    /   O peration     | Version:  v2012                                 |
|   \\  /    A nd           | Website:  www.openfoam.com                      |
|    \\/     M anipulation  |                                                 |
\*---------------------------------------------------------------------------*/
FoamFile
{
    version     2.0;
    format      ascii;
    class       dictionary;
    object      surfaceFeatureExtractDict;
}
// * * * * * * * * * * * * * * * * * * * * * * * * * * * * * * * * * * * * * //

OC_DrivAer_CC_NB_210512_A.obj
{
    #include "surfaceFeatureExtractDictDefaultsNoEdges"
}
TirePlinthfront.obj
{
    #include "surfaceFeatureExtractDictDefaults"
}
TirePlinthrear.obj
{
    #include "surfaceFeatureExtractDictDefaults"
}
Plinths_adapted.obj
{
    #include "surfaceFeatureExtractDictDefaults"
}

AMI_IN_FL.obj
{
    #include "surfaceFeatureExtractDictDefaults"
}

AMI_IN_FR.obj
{
    #include "surfaceFeatureExtractDictDefaults"
}

AMI_OUT_FL.obj
{
    #include "surfaceFeatureExtractDictDefaults"
}

AMI_OUT_FR.obj
{
    #include "surfaceFeatureExtractDictDefaults"
}

AMI_IN_RL.obj
{
    #include "surfaceFeatureExtractDictDefaults"
}

AMI_IN_RR.obj
{
    #include "surfaceFeatureExtractDictDefaults"
}

AMI_OUT_RL.obj
{
    #include "surfaceFeatureExtractDictDefaults"
}

AMI_OUT_RR.obj
{
    #include "surfaceFeatureExtractDictDefaults"
}
Rimsfront.obj
{
    #include "surfaceFeatureExtractDictDefaults"
}
Rimsrear.obj
{
    #include "surfaceFeatureExtractDictDefaults"
}

BrakeDiscfront.obj
{
    #include "surfaceFeatureExtractDictDefaults"
}
BrakeDiscrear.obj
{
    #include "surfaceFeatureExtractDictDefaults"
}

// ************************************************************************* //
