/*--------------------------------*- C++ -*----------------------------------*\
| =========                 |                                                 |
| \\      /  F ield         | OpenFOAM: The Open Source CFD Toolbox           |
|  \\    /   O peration     | Version:  v2212                                 |
|   \\  /    A nd           | Website:  www.openfoam.com                      |
|    \\/     M anipulation  |                                                 |
\*---------------------------------------------------------------------------*/
FoamFile
{
    version     2.0;
    format      ascii;
    class       volScalarField;
    object      alphat;
}
dimensions      [1 -1 -1 0 0 0 0] ;

internalField   uniform 1.0e-05;

boundaryField
{

     ".*"
    {
        type     compressible::alphatWallFunction;
        value    $internalField; 
    }

    #includeEtc "caseDicts/setConstraintTypes"

    XMax
    {
        type            calculated ;
        value           $internalField; 

    }

    XMin
    {
        type            calculated ;
        value           $internalField; 
    }
    
   YMin
    {
        type            symmetry;
        value           $internalField;
    }

    YMax
    {
        type            symmetry;
        value           $internalField;
    }

    ZMax
    {
        type            symmetry;
        value           $internalField;
    }
     
}
