/*--------------------------------*- C++ -*----------------------------------*\
| =========                 |                                                 |
| \\      /  F ield         | OpenFOAM: The Open Source CFD Toolbox           |
|  \\    /   O peration     | Version:  v2212                                 |
|   \\  /    A nd           | Website:  www.openfoam.com                      |
|    \\/     M anipulation  |                                                 |
\*---------------------------------------------------------------------------*/
FoamFile
{
    version     2.0;
    format      ascii;
    class       volScalarField;
    object      k;
}
dimensions      [0 2 -2 0 0 0 0];

internalField   uniform 0.01;

boundaryField
{
    
    ".*"
    {
        type            kqRWallFunction;
        value           $internalField;
    }

    #includeEtc "caseDicts/setConstraintTypes"

    XMin
    {
        type            fixedValue;
        value           uniform 0.00226853;
    }
    
    XMax
    {
        type            inletOutlet;
        inletValue      uniform 0.00226853;
        value           uniform 0.00226853;
    }
    YMin
    {
        type            symmetry;
        value           $internalField;
    }
    
    YMax
    {
        type            symmetry;
        value           $internalField;
    }
    
    ZMax
    {
        type            symmetry;
        value           $internalField;
    }
}
