/*--------------------------------*- C++ -*----------------------------------*\
| =========                 |                                                 |
| \\      /  F ield         | OpenFOAM: The Open Source CFD Toolbox           |
|  \\    /   O peration     | Version:  v2106                                 |
|   \\  /    A nd           | Website:  www.openfoam.com                      |
|    \\/     M anipulation  |                                                 |
\*---------------------------------------------------------------------------*/
FoamFile
{
    version     2.0;
    format      binary;
    arch        "LSB;label=32;scalar=64";
    class       volVectorField;
    location    "0";
    object      U;
}
// * * * * * * * * * * * * * * * * * * * * * * * * * * * * * * * * * * * * * //

dimensions      [0 1 -1 0 0 0 0];

internalField   uniform (3 0 0);

boundaryField
{
    inlet
    {
        type            turbulentDigitalFilterInlet;
        value           $internalField;
        variant         digitalFilter;
        n               (60 30);
        L               (0.09 0.09 0.09 0.09 0.09 0.09 0.09 0.09 0.09);
        mean
        {
            type        mappedFile;
            mapMethod   nearest;
            fieldTable  UMean;
        }
        R               
        {
            type        mappedFile;
            mapMethod   nearest;
        }
        continuous      true;
    }
    outlet
    {
        type            inletOutlet;
        inletValue      uniform (0 0 0);
        value           uniform (3 0 0);
    }
    bottom
    {
        type            noSlip;
    }
    top
    {
        type            slip;
    }
    side1
    {
        type            slip;
    }
    side2
    {
        type            slip;
    }
}


// ************************************************************************* //
