/*--------------------------------*- C++ -*----------------------------------*\
| =========                 |                                                 |
| \\	  /  F ield         | foam-extend: Open Source CFD                    |
|  \\    /   O peration     | Version:     5.0                                |
|   \\  /    A nd           | Web:         http://www.foam-extend.org         |
|    \\/     M anipulation  | For copyright notice see file Copyright         |
\*---------------------------------------------------------------------------*/
FoamFile
{
    version     2.0;
    format      ascii;
    class       dictionary;
    object      controlDict;
}
// * * * * * * * * * * * * * * * * * * * * * * * * * * * * * * * * * * * * * //

application     &solver;

startFrom       latestTime;

startTime       0;

stopAt          endTime;

endTime         20;

deltaT          0.00001;

writeControl    runTime;

writeInterval   0.1;

purgeWrite      0;

writeFormat     binary;

writePrecision  12;

writeCompression uncompressed;

timeFormat      general;

timePrecision   6;

graphFormat     raw;

runTimeModifiable yes;

adjustTimeStep  on;

maxCo           &maxCo;

maxDeltaT       0.1;

functions
{
#include "./system/postProcessingFuncs"
}


// ************************************************************************* //
