/*--------------------------------*- C++ -*----------------------------------*\
| =========                 |                                                 |
| \\      /  F ield         | OpenFOAM: The Open Source CFD Toolbox           |
|  \\    /   O peration     | Version:  v2306                                 |
|   \\  /    A nd           | Website:  www.openfoam.com                      |
|    \\/     M anipulation  |                                                 |
\*---------------------------------------------------------------------------*/
FoamFile
{
    version     2.0;
    format      ascii;
    class       dictionary;
    object      caseSettings;
}
// * * * * * * * * * * * * * * * * * * * * * * * * * * * * * * * * * * * * * //

inlet
{
    U   111.0;
    T   1400.0;//725.0;

    // species
    CH4 0.0305;
    O2  0.204;
}

walls
{
    T   700;
}

intFields
{
    p   8e5;
    T   325;
}

mesh
{
    avgMeshSize  2.5;//fine: 2; coarse: 10; // 2.5 default
}

// ************************************************************************* //
