/*--------------------------------*- C++ -*----------------------------------*\
| =========                 |                                                 |
| \\      /  F ield         | OpenFOAM: The Open Source CFD Toolbox           |
|  \\    /   O peration     | Version:  v2306                                 |
|   \\  /    A nd           | Website:  www.openfoam.com                      |
|    \\/     M anipulation  |                                                 |
\*---------------------------------------------------------------------------*/
FoamFile
{
    version     2.0;
    format      ascii;
    class       dictionary;
    object      fvSchemes;
}
// * * * * * * * * * * * * * * * * * * * * * * * * * * * * * * * * * * * * * //

ddtSchemes
{
    default             backward;
}

d2dt2Schemes
{
}

gradSchemes
{
    default             Gauss linear;
    grad(U)             cellLimited Gauss linear 1;
    grad(nuTilda)       cellLimited Gauss linear 1;
}

divSchemes
{
    default                        Gauss linear;
    div(phi,U)                     Gauss linearUpwindV grad(U);
    div(phi,nuTilda)               Gauss upwind;    
    div((nuEff*dev(grad(U).T())))  Gauss linear;
}

laplacianSchemes
{
    default             Gauss linear corrected;
}

interpolationSchemes
{
    default             linear;
}

snGradSchemes
{
    default             corrected;
}

fluxRequired
{
    default             no;
    p;
}

wallDist
{
    method              meshWave;
}

// ************************************************************************* //
