/*--------------------------------*- C++ -*----------------------------------*\
| =========                 |                                                 |
| \\      /  F ield         | OpenFOAM: The Open Source CFD Toolbox           |
|  \\    /   O peration     | Version:  v2206                                 |
|   \\  /    A nd           | Website:  www.openfoam.com                      |
|    \\/     M anipulation  |                                                 |
\*---------------------------------------------------------------------------*/
FoamFile
{
    version     2.0;
    format      ascii;
    class       dictionary;
    object      controlDict;
}
// * * * * * * * * * * * * * * * * * * * * * * * * * * * * * * * * * * * * * //

application     rhoSimpleFoam;
startFrom       latestTime;
startTime       0;
stopAt          endTime;
endTime         3000;
deltaT          1;
writeControl    timeStep;
writeInterval   3000;
purgeWrite      0;
writeFormat     binary;
writePrecision  6;
writeCompression off;
timeFormat      general;
timePrecision   6;
runTimeModifiable yes;

libs            ("libturbulenceModelSchemes.so");

functions
{
    fieldMinMax
    {
        type                fieldMinMax;
        libs                ("libfieldFunctionObjects.so");
        log                 yes;
        writeControl        timeStep;
        writeInterval       1;
        mode                magnitude;
        fields              ( U p rho T );
    }

    #include "forceCoeffient"

    fieldAverage
    {
        type            fieldAverage;
        libs            ("libfieldFunctionObjects.so");
	timeStart	2000;
        enabled         true;
        writeControl    writeTime;
        fields
        (
            U
            {
                mean        on;
                prime2Mean  off;
                base        time;
            }

            p
            {
                mean        on;
                prime2Mean  off;
                base        time;
            }

        );
    }
    #include "cuttingPlane"
}

// ************************************************************************* //
