/*--------------------------------*- C++ -*----------------------------------*\
| =========                 |                                                 |
| \\      /  F ield         | OpenFOAM: The Open Source CFD Toolbox           |
|  \\    /   O peration     | Version:  v2106                                 |
|   \\  /    A nd           | Website:  www.openfoam.com                      |
|    \\/     M anipulation  |                                                 |
\*---------------------------------------------------------------------------*/
FoamFile
{
    version     2.0;
    format      ascii;
    class       dictionary;
    object      blockMeshDict;
}
// * * * * * * * * * * * * * * * * * * * * * * * * * * * * * * * * * * * * * //

scale 1;

vertices
(
   (-500 60 60)
   (-500 -60 60)
   (-500 -60 -60)
   (-500 60 -60)

   (950 60 60)
   (950 -60 60)
   (950 -60 -60)
   (950 60 -60)
);

blocks
(
    hex ( 0 1 2 3 4 5 6 7 ) (148 148 1728) simpleGrading (1 1 1)
);

edges
(
);

patches
(
);

mergePatchPairs
(
);


// ************************************************************************* //
