/*--------------------------------*- C++ -*----------------------------------*\
| =========                 |                                                 |
| \\      /  F ield         | OpenFOAM: The Open Source CFD Toolbox           |
|  \\    /   O peration     | Version:  v2106                                 |
|   \\  /    A nd           | Website:  www.openfoam.com                      |
|    \\/     M anipulation  |                                                 |
\*---------------------------------------------------------------------------*/
FoamFile
{
    version     2.0;
    format      ascii;
    class       dictionary;
    object      controlDict;
}
// * * * * * * * * * * * * * * * * * * * * * * * * * * * * * * * * * * * * * //

application     pimpleFoam;

startFrom       startTime;

startTime       0;

stopAt          endTime;

endTime         1e-2;

deltaT          1e-5;

writeControl    runTime;

writeInterval   1;

purgeWrite      0;

writeFormat     binary;

writePrecision  6;

writeCompression off;

timeFormat      general;

timePrecision   6;

runTimeModifiable no;

functions
{
    #include "FOwallClockTimeStatistics"
    #include "FOcalcTKE"
    fieldAverage1
    {
        type            fieldAverage;
        libs            (fieldFunctionObjects);
        writeControl    writeTime;

        fields
        (
            U
            {
                mean        on;
                prime2Mean  on;
                base        time;
            }

            k
            {
                mean        on;
                prime2Mean  off;
                base        time;
            }
        );
        // Optional entries (runtime modifiable)
        restartOnRestart    false;
        restartOnOutput     false;
        periodicRestart     true;
        restartPeriod       0.5;
        // Optional (inherited) entries
        region          region0;
        enabled         true;
        log             true;
        timeStart       0.0;
        timeEnd         1000;
    }
}

// ************************************************************************* //
