/*--------------------------------*- C++ -*----------------------------------*\
| =========                 |                                                 |
| \\      /  F ield         | OpenFOAM: The Open Source CFD Toolbox           |
|  \\    /   O peration     | Version:  v2106                                 |
|   \\  /    A nd           | Website:  www.openfoam.com                      |
|    \\/     M anipulation  |                                                 |
\*---------------------------------------------------------------------------*/
FoamFile
{
    version     2.0;
    format      ascii;
    class       dictionary;
    object      swirlAndRotationProperties;
}
// * * * * * * * * * * * * * * * * * * * * * * * * * * * * * * * * * * * * * //

modifyBoundaries   yes;

modifyInterior     no;

omega              omega [0 0 -1 0 0 0 0] (0.0 0.0 52.646);

center             center [0 0 0 0 0 0 0] (0.0 0.0 0.0);

rotatingPatches
(
   inlet
   rotSwirlWall
);


// Used only by coded boundary conditions
rotAxis            rotAxis [0 0 0 0 0 0 0] (0.0 0.0 1.0);

meanAxialVelocity  meanAxialVelocity [0 1 -1 0 0 0 0] 11.6;

// ************************************************************************* //
