/*--------------------------------*- C++ -*----------------------------------*\
| =========                 |                                                 |
| \\      /  F ield         | OpenFOAM: The Open Source CFD Toolbox           |
|  \\    /   O peration     | Version:  v2012                                 |
|   \\  /    A nd           | Website:  www.openfoam.com                      |
|    \\/     M anipulation  |                                                 |
\*---------------------------------------------------------------------------*/
FoamFile
{
    version     2.0;
    format      ascii;
    class       dictionary;
    object      blockMeshDict;
}

// * * * * * * * * * * * * * * * * * * * * * * * * * * * * * * * * * * * * * //

rescale   1;       

xMin   -2.5;
xMax    6.5;
yMin   -2.761;
yMax    1.239;
zMin    -0.3176;
zMax    1.6824;
xCells  #eval "9*$rescale";
yCells  #eval "4*$rescale";
zCells  #eval "2*$rescale";

vertices
(
    ($xMin $yMin $zMin)
    ($xMax $yMin $zMin)
    ($xMax $yMax $zMin)
    ($xMin $yMax $zMin)

    ($xMin $yMin $zMax)
    ($xMax $yMin $zMax)
    ($xMax $yMax $zMax)
    ($xMin $yMax $zMax)
);

blocks
(
    hex (0 1 2 3 4 5 6 7) ($xCells $yCells $zCells) simpleGrading (1 1 1)
);

edges
(
);

boundary
(
    inlet
    {
        type patch;
        faces
        (
            (0 3 7 4)
        );
    }
    outlet
    {
        type patch;
        faces
        (
            (1 5 6 2)
        );
    }
    freestream
    {
        type symmetry;
        faces
        (
            (4 7 6 5)
            (3 2 6 7)
            (0 4 5 1)
        );
    }
    ground
    {
        type wall;
        faces
        (
            (0 1 2 3)
        );
    }
);

// ************************************************************************* //
