/*--------------------------------*- C++ -*----------------------------------*\
| =========                 |                                                 |
| \\      /  F ield         | OpenFOAM: The Open Source CFD Toolbox           |
|  \\    /   O peration     | Version:  v2306                                 |
|   \\  /    A nd           | Website:  www.openfoam.com                      |
|    \\/     M anipulation  |                                                 |
\*---------------------------------------------------------------------------*/
FoamFile
{
    version     2.0;
    format      ascii;
    class       volScalarField;
    object      nuTilda;
}
// * * * * * * * * * * * * * * * * * * * * * * * * * * * * * * * * * * * * * //

#include            "$FOAM_CASE/constant/turbulenceQuantities"

dimensions          [ 0 2 -1 0 0 0 0 ];
internalField       uniform $turbulentNuTilda;

boundaryField
{
    groupWall
    {
        type        fixedValue;
        value       uniform 0;
    }

    groupSymmetry
    {
        type        symmetry;
    }

    groupDefault
    {
        type        fixedValue;
        value       uniform 0;
    }

    groupTransition
    {
        type        zeroGradient;
    }

    groupSlip
    {
        type        slip;
    }

    groupGRWS_Tire_FL
    {
        type        fixedValue;
        value       uniform 0;
    }

    groupGRWS_Tire_FR
    {
        type        fixedValue;
        value       uniform 0;
    }

    groupGRWS_Tire_RL
    {
        type        fixedValue;
        value       uniform 0;
    }

    groupGRWS_Tire_RR
    {
        type        fixedValue;
        value       uniform 0;
    }

    groupWtunInlet
    {
        type        fixedValue;
        value       uniform $turbulentNuTilda;
    }

    groupWtunOutlet
    {
        type        inletOutlet; 
        inletValue  uniform $turbulentNuTilda;
        value       uniform $turbulentNuTilda;
    }

    groupWtunStreet
    {
        type        fixedValue;
        value       uniform 0;
    }

    // Set patchGroups for constraint types
    #include "${WM_PROJECT_DIR}/etc/caseDicts/setConstraintTypes"
}

// ************************************************************************* //
