/*--------------------------------*- C++ -*----------------------------------*\
| =========                 |                                                 |
| \\      /  F ield         | OpenFOAM: The Open Source CFD Toolbox           |
|  \\    /   O peration     | Version:  v2106                                 |
|   \\  /    A nd           | Website:  www.openfoam.com                      |
|    \\/     M anipulation  |                                                 |
\*---------------------------------------------------------------------------*/
FoamFile
{
    version     2.0;
    format      ascii;
    class       volScalarField;
    object      nuTilda;
}
// * * * * * * * * * * * * * * * * * * * * * * * * * * * * * * * * * * * * * //

dimensions      [0 2 -1 0 0 0 0];

internalField   uniform 0.001;

boundaryField
{
    inlet           
    {
        type            calculated;
        value           uniform 0.001;
    }
    rotSwirlWall
    {
        type            nutLowReWallFunction;
        value           uniform 0;
    }
    statSwirlWall
    {
        type            nutLowReWallFunction;
        value           uniform 0;
    }
    wallDiffuser
    {
        type            nutLowReWallFunction;
        value           uniform 0;
    }
    wallOutletPipe
    {
        type            nutLowReWallFunction;
        value           uniform 0;
    }
    outlet          
    {
        type            calculated;
        value           uniform 0;
    }
}

// ************************************************************************* //
