/*--------------------------------*- C++ -*----------------------------------*\
  =========                 |
  \\      /  F ield         | OpenFOAM: The Open Source CFD Toolbox
   \\    /   O peration     | Website:  https://openfoam.org
    \\  /    A nd           | Version:  dev
     \\/     M anipulation  |
\*---------------------------------------------------------------------------*/
FoamFile
{
    format      ascii;
    class       volScalarField;
    location    "0";
    object      p;
}
// * * * * * * * * * * * * * * * * * * * * * * * * * * * * * * * * * * * * * //

dimensions      [1 -1 -2 0 0 0 0];

internalField   uniform 101325;

boundaryField
{
    fuel_inlet
    {
        type            zeroGradient;
    }
    air_inlet
    {
        type            zeroGradient;
    }
    outlet
    {
        type            totalPressure;
        p0              $internalField;
    }
    walls
    {
        type            zeroGradient;
    }
    sides
    {
        type            symmetry;
    }

}


// ************************************************************************* //
