/*--------------------------------*- C++ -*----------------------------------*\
| =========                 |                                                 |
| \\      /  F ield         | OpenFOAM: The Open Source CFD Toolbox           |
|  \\    /   O peration     | Version:  v2106                                 |
|   \\  /    A nd           | Website:  www.openfoam.com                      |
|    \\/     M anipulation  |                                                 |
\*---------------------------------------------------------------------------*/
FoamFile
{
    version     2.0;
    format      ascii;
    class       dictionary;
    object      fvSchemes;
}
// * * * * * * * * * * * * * * * * * * * * * * * * * * * * * * * * * * * * * //

ddtSchemes
{
    default         steadyState;
}

gradSchemes
{
    default         Gauss linear;
}

divSchemes
{
    default             none;
    div(phi,U)          bounded Gauss linearUpwind Gauss linear;
    turbulence          bounded Gauss upwind;
    div(phi,k)          $turbulence;
    div(phi,omega)      $turbulence;
    div(phi,epsilon)    $turbulence;
    div((nuEff*dev2(T(grad(U))))) Gauss linear;
}

laplacianSchemes
{
    default         none;
    laplacian(nuEff,U) Gauss linear limited corrected 0.33;
    laplacian((1|A(U)),p) Gauss linear limited corrected 0.33;
    laplacian(DkEff,k) Gauss linear limited corrected 0.33;
    laplacian(DomegaEff,omega) Gauss linear limited corrected 0.33;
    laplacian(DepsilonEff,epsilon) Gauss linear limited corrected 0.33;
    laplacian(1,Phi) Gauss linear corrected;
}

interpolationSchemes
{
    default         linear;
}

snGradSchemes
{
    default         limited corrected 0.33;
}

wallDist
{
    method          meshWave;
}

fluxRequired
{
    default         no;
    p;
}

// ************************************************************************* //