/*--------------------------------*- C++ -*----------------------------------*\
| =========                 |                                                 |
| \\      /  F ield         | OpenFOAM: The Open Source CFD Toolbox           |
|  \\    /   O peration     | Version:  v2206                                 |
|   \\  /    A nd           | Website:  www.openfoam.com                      |
|    \\/     M anipulation  |                                                 |
\*---------------------------------------------------------------------------*/
FoamFile
{
    version     2.0;
    format      ascii;
    class       dictionary;
    object      turbulenceProperties;
}
// * * * * * * * * * * * * * * * * * * * * * * * * * * * * * * * * * * * * * //

simulationType RAS;
//simulationType LES;

RAS
{
//    RASModel            realizableKE;
    RASModel            kOmegaSST;
//    RASModel            v2f;
//    RASModel            SpalartAllmaras;
//    RASModel            kOmegaSSTSAS;
    turbulence          on;
    printCoeffs         on;

    kOmegaSSTSASCoeffs
    {
    	delta               vanDriest;
    	//delta             cubeRootVol;
    	//delta             maxDeltaxyz;

    	vanDriestCoeffs
    	{
        	delta           cubeRootVol;
        	cubeRootVolCoeffs
        	{
                	deltaCoeff      2.0;
        	}
    	}

    	maxDeltaxyzCoeffs
    	{
        	deltaCoeff 2.0;
    	}

    	cubeRootVolCoeffs
    	{
        	deltaCoeff      2.0;
    	}

    }
}

LES
{
    LESModel            kOmegaSSTDDES;          //IDDES model works only with IDDESDelta
//    LESModel            SpalartAllmarasDDES;
    //LESModel            Smagorinsky;
    //LESModel            WALE;
    //LESModel            kEqn;
    //LESModel            dynamicKEqn;
    turbulence          on;
    printCoeffs         on;

    delta               vanDriest;
    //delta             cubeRootVol;
    //delta             maxDeltaxyz;

    maxDeltaxyzCoeffs
    {
        deltaCoeff 2.0;
    }

    IDDESDeltaCoeffs
    {
        deltaCoeff 2.0;
    }

    vanDriestCoeffs
    {
        delta           cubeRootVol;
        cubeRootVolCoeffs
        {
                deltaCoeff      2.0;
        }
    }

    cubeRootVolCoeffs
    {
        deltaCoeff      2.0;
    }

    dynamicKEqnCoeffs
    {
	filter simple;
    }
}

// ************************************************************************* //
