/*--------------------------------*- C++ -*----------------------------------*\
| =========                 |                                                 |
| \\      /  F ield         | foam-extend: Open Source CFD                    |
|  \\    /   O peration     | Version:     5.0                                |
|   \\  /    A nd           | Web:         http://www.foam-extend.org         |
|    \\/     M anipulation  | For copyright notice see file Copyright         |
\*---------------------------------------------------------------------------*/
FoamFile
{
    version     2.0;
    format      ascii;
    class       volSymmTensorField;
    object      tauM3;
}
// * * * * * * * * * * * * * * * * * * * * * * * * * * * * * * * * * * * * * //

dimensions      [1 -1 -2 0 0 0 0];

internalField   uniform (0 0 0 0 0 0);

boundaryField
{
    inlet
    {
        type            fixedValue;
        value           uniform (0 0 0 0 0 0);
    }
    outlet
    {
        type            linearExtrapolation;
        value           uniform (0 0 0 0 0 0);
    }
    wall1
    {
        type            linearExtrapolation;
        value           uniform (0 0 0 0 0 0); 
    }
    wall2
    {
        type            linearExtrapolation;
        value           uniform (0 0 0 0 0 0); 
    }
    wall3
    {
        type            linearExtrapolation;
        value           uniform (0 0 0 0 0 0); 
    }
    symH
    {
        type            linearExtrapolation;
        value           uniform (0 0 0 0 0 0); 
    }
    symV
    {
        type            linearExtrapolation;
        value           uniform (0 0 0 0 0 0); 
    }
}

// ************************************************************************* //
