/*--------------------------------*- C++ -*----------------------------------*\
| =========                 |                                                 |
| \\      /  F ield         | OpenFOAM: The Open Source CFD Toolbox           |
|  \\    /   O peration     | Version:  v2306                                 |
|   \\  /    A nd           | Website:  www.openfoam.com                      |
|    \\/     M anipulation  |                                                 |
\*---------------------------------------------------------------------------*/
FoamFile
{
    format      ascii;
    version     2.0;
    class       dictionary;
    object      createPatchDict;
}
// * * * * * * * * * * * * * * * * * * * * * * * * * * * * * * * * * * * * * //

pointSync false;
writeCyclicMatch  false;

// Patches to create.
patches
(
    {
        name fuelInlet;
        patchInfo
        {
            type patch;
        }

        constructFrom set;
        set extrusionFuel;
    }

    {
        name inlet;
        patchInfo
        {
            type patch;
        }

        constructFrom set;
        set extrusionAir;
    }
);

// ************************************************************************* //
