/*--------------------------------*- C++ -*----------------------------------*\
 =========                |
 \      /  F ield         | OpenFOAM: The Open Source CFD Toolbox
  \    /   O peration     | Website:  https://openfoam.org
   \  /    A nd           | Version:  dev                                   
    \/     M anipulation  |
\*---------------------------------------------------------------------------*/
FoamFile
{
    format      ascii;
    class       dictionary;
    object      createPatchDict;
}
// * * * * * * * * * * * * * * * * * * * * * * * * * * * * * * * * * * * * * //

pointSync false;
writeCyclicMatch  false;

// Patches to create.
patches
(
    {
        name fuelInlet;
        patchInfo
        {
            type patch;
        }

        constructFrom set;
        set extrusionFuel;
    }

    {
        name inlet;
        patchInfo
        {
            type patch;
        }

        constructFrom set;
        set extrusionAir;
    }
);

// ************************************************************************* //
