/*--------------------------------*- C++ -*----------------------------------*\
 =========                |
 \      /  F ield         | OpenFOAM: The Open Source CFD Toolbox
  \    /   O peration     | Website:  https://openfoam.org
   \  /    A nd           | Version:  dev                                   
    \/     M anipulation  |
\*---------------------------------------------------------------------------*/
FoamFile
{
    format      ascii;
    class       dictionary;
    object      setFieldsDict;
}
// * * * * * * * * * * * * * * * * * * * * * * * * * * * * * * * * * * * * * //

#include "${FOAM_CASE}/constant/caseSettings"

N2val #calc "1 - $:inlet.O2 - $:inlet.CH4";

defaultFieldValues
(
    volScalarFieldValue T 1900//$intFields/T
);

regions
(
    cylinderToCell
    {
        p1 (-0.4 -0.01 0);
        p2 (0.04 -0.01 0);
        radius 0.02;
        fieldValues
        (
            volScalarFieldValue CH4 $:inlet.CH4
            volScalarFieldValue O2  $:inlet.O2
            volScalarFieldValue N2  $N2val
            volScalarFieldValue T   $:inlet.T
    	    volVectorFieldValue U ($:inlet.U 0 0)
        );
    }
);

// ************************************************************************* //
