/*--------------------------------*- C++ -*----------------------------------*\
| =========                 |                                                 |
| \\      /  F ield         | OpenFOAM: The Open Source CFD Toolbox           |
|  \\    /   O peration     | Version:  v2306                                 |
|   \\  /    A nd           | Website:  www.openfoam.com                      |
|    \\/     M anipulation  |                                                 |
\*---------------------------------------------------------------------------*/
FoamFile
{
    format      ascii;
    version     2.0;
    class       dictionary;
    object      setFieldsDict;
}
// * * * * * * * * * * * * * * * * * * * * * * * * * * * * * * * * * * * * * //

#include "${FOAM_CASE}/constant/caseSettings"

N2val #calc "1 - $inlet/O2 - $inlet/CH4";

defaultFieldValues
(
    volScalarFieldValue T 725.0//$intFields.T
);

regions
(
    cylinderToCell
    {
        p1 (-0.4 -0.01 0);
        p2 (0.03 -0.01 0);
        radius 0.02;
        fieldValues
        (
            volScalarFieldValue CH4 $inlet/CH4
            volScalarFieldValue O2  $inlet/O2
            volScalarFieldValue N2  $N2val
            volScalarFieldValue T   $inlet/T
    	    volVectorFieldValue U ($inlet/U 0 0)
        );
    }
);

// ************************************************************************* //
