// Upstream CFD, 2023
//
// The project leading to this application has received funding from
// the European High-Performance Computing Joint Undertaking Joint
// Undertaking (JU) under grant agreement No 956416. The JU receives
// support from the European Union's Horizon 2020 research and
// innovation programme and France, United Kingdom, Germany, Italy,
// Croatia, Spain, Greece, Portugal
//
// Input surface mesh from AIAA HLPW5 Case 2.4 (ONERA_LRM-LDG-HV) 

FoamFile
{
    version         2;
    format          ascii;
    class           dictionary;
    object          snappyHexMeshDict;
}

castellatedMesh true;
snap            true;
addLayers       true;

geometry
{
    "CRM_2p4_ONERA_LDG_v01.obj.gz"
    {
        type            triSurfaceMesh;
        regions
        {
            ww_chine
            {
                name            ww_chine;
            }
            ww_TE
            {
                name            ww_TE;
            }
            ww_symmetry
            {
                name            ww_symmetry;
            }
            ww_stabilizer_horizontal_PS
            {
                name            ww_stabilizer_horizontal_PS;
            }
            ww_stabilizer_horizontal_SS
            {
                name            ww_stabilizer_horizontal_SS;
            }
            ww_stabilizer_vertical
            {
                name            ww_stabilizer_vertical;
            }
            ww_fairing
            {
                name            ww_fairing;
            }
            ww_pylon
            {
                name            ww_pylon;
            }
            ww_slat_bracket
            {
                name            ww_slat_bracket;
            }
            ww_wing_PS
            {
                name            ww_wing_PS;
            }
            ww_wing_SS
            {
                name            ww_wing_SS;
            }
            ww_flap
            {
                name            ww_flap;
            }
            ww_slat
            {
                name            ww_slat;
            }
            ww_nacelle
            {
                name            ww_nacelle;
            }
            ww_fuselage
            {
                name            ww_fuselage;
            }
        }
        name            Airplane_Body;
    }
    "CRM_2p4_ONERA_LDG_v01-Zones-2.obj.gz"
    {
        type            triSurfaceMesh;
    }
    ww_chine_TE_BLT
    {
        type            subTriSurfaceMesh;
        surface         "CRM_2p4_ONERA_LDG_v01-Zones-2.obj.gz";
        patches         ( ww_chine_TE );
    }
    ww_fuselage_TE_BLT
    {
        type            subTriSurfaceMesh;
        surface         "CRM_2p4_ONERA_LDG_v01-Zones-2.obj.gz";
        patches         ( ww_fuselage_TE );
    }
    ww_fuselage_7_BLT
    {
        type            subTriSurfaceMesh;
        surface         "CRM_2p4_ONERA_LDG_v01-Zones-2.obj.gz";
        patches         ( ww_fuselage_7 );
    }
    ww_fuselage_6_BLT
    {
        type            subTriSurfaceMesh;
        surface         "CRM_2p4_ONERA_LDG_v01-Zones-2.obj.gz";
        patches         ( ww_fuselage_6 );
    }
    ww_fuselage_5_BLT
    {
        type            subTriSurfaceMesh;
        surface         "CRM_2p4_ONERA_LDG_v01-Zones-2.obj.gz";
        patches         ( ww_fuselage_5 );
    }
    ww_fuselage_4_BLT
    {
        type            subTriSurfaceMesh;
        surface         "CRM_2p4_ONERA_LDG_v01-Zones-2.obj.gz";
        patches         ( ww_fuselage_4 );
    }
    ww_fuselage_3_BLT
    {
        type            subTriSurfaceMesh;
        surface         "CRM_2p4_ONERA_LDG_v01-Zones-2.obj.gz";
        patches         ( ww_fuselage_3 );
    }
    ww_fuselage_2_BLT
    {
        type            subTriSurfaceMesh;
        surface         "CRM_2p4_ONERA_LDG_v01-Zones-2.obj.gz";
        patches         ( ww_fuselage_2 );
    }
    ww_fuselage_1_BLT
    {
        type            subTriSurfaceMesh;
        surface         "CRM_2p4_ONERA_LDG_v01-Zones-2.obj.gz";
        patches         ( ww_fuselage_1 );
    }
    ww_pylon_TE_BLT
    {
        type            subTriSurfaceMesh;
        surface         "CRM_2p4_ONERA_LDG_v01-Zones-2.obj.gz";
        patches         ( ww_pylon_TE );
    }
    ww_pylon_wing_PS_D3_BLT
    {
        type            subTriSurfaceMesh;
        surface         "CRM_2p4_ONERA_LDG_v01-Zones-2.obj.gz";
        patches         ( ww_pylon_wing_PS_D3 );
    }
    ww_pylon_wing_PS_D2_BLT
    {
        type            subTriSurfaceMesh;
        surface         "CRM_2p4_ONERA_LDG_v01-Zones-2.obj.gz";
        patches         ( ww_pylon_wing_PS_D2 );
    }
    ww_pylon_wing_PS_D1_BLT
    {
        type            subTriSurfaceMesh;
        surface         "CRM_2p4_ONERA_LDG_v01-Zones-2.obj.gz";
        patches         ( ww_pylon_wing_PS_D1 );
    }
    ww_pylon_wing_PS_C4_BLT
    {
        type            subTriSurfaceMesh;
        surface         "CRM_2p4_ONERA_LDG_v01-Zones-2.obj.gz";
        patches         ( ww_pylon_wing_PS_C4 );
    }
    ww_pylon_wing_PS_C3_BLT
    {
        type            subTriSurfaceMesh;
        surface         "CRM_2p4_ONERA_LDG_v01-Zones-2.obj.gz";
        patches         ( ww_pylon_wing_PS_C3 );
    }
    ww_pylon_wing_PS_C2_BLT
    {
        type            subTriSurfaceMesh;
        surface         "CRM_2p4_ONERA_LDG_v01-Zones-2.obj.gz";
        patches         ( ww_pylon_wing_PS_C2 );
    }
    ww_pylon_wing_PS_C1_BLT
    {
        type            subTriSurfaceMesh;
        surface         "CRM_2p4_ONERA_LDG_v01-Zones-2.obj.gz";
        patches         ( ww_pylon_wing_PS_C1 );
    }
    ww_pylon_wing_PS_B4_BLT
    {
        type            subTriSurfaceMesh;
        surface         "CRM_2p4_ONERA_LDG_v01-Zones-2.obj.gz";
        patches         ( ww_pylon_wing_PS_B4 );
    }
    ww_pylon_wing_PS_B3_BLT
    {
        type            subTriSurfaceMesh;
        surface         "CRM_2p4_ONERA_LDG_v01-Zones-2.obj.gz";
        patches         ( ww_pylon_wing_PS_B3 );
    }
    ww_pylon_wing_PS_B2_BLT
    {
        type            subTriSurfaceMesh;
        surface         "CRM_2p4_ONERA_LDG_v01-Zones-2.obj.gz";
        patches         ( ww_pylon_wing_PS_B2 );
    }
    ww_pylon_wing_PS_B1_BLT
    {
        type            subTriSurfaceMesh;
        surface         "CRM_2p4_ONERA_LDG_v01-Zones-2.obj.gz";
        patches         ( ww_pylon_wing_PS_B1 );
    }
    ww_pylon_wing_PS_A4_BLT
    {
        type            subTriSurfaceMesh;
        surface         "CRM_2p4_ONERA_LDG_v01-Zones-2.obj.gz";
        patches         ( ww_pylon_wing_PS_A4 );
    }
    ww_pylon_nacelle_D3_BLT
    {
        type            subTriSurfaceMesh;
        surface         "CRM_2p4_ONERA_LDG_v01-Zones-2.obj.gz";
        patches         ( ww_pylon_nacelle_D3 );
    }
    ww_pylon_nacelle_D2_BLT
    {
        type            subTriSurfaceMesh;
        surface         "CRM_2p4_ONERA_LDG_v01-Zones-2.obj.gz";
        patches         ( ww_pylon_nacelle_D2 );
    }
    ww_pylon_nacelle_D1_BLT
    {
        type            subTriSurfaceMesh;
        surface         "CRM_2p4_ONERA_LDG_v01-Zones-2.obj.gz";
        patches         ( ww_pylon_nacelle_D1 );
    }
    ww_pylon_nacelle_C4_BLT
    {
        type            subTriSurfaceMesh;
        surface         "CRM_2p4_ONERA_LDG_v01-Zones-2.obj.gz";
        patches         ( ww_pylon_nacelle_C4 );
    }
    ww_pylon_nacelle_C3_BLT
    {
        type            subTriSurfaceMesh;
        surface         "CRM_2p4_ONERA_LDG_v01-Zones-2.obj.gz";
        patches         ( ww_pylon_nacelle_C3 );
    }
    ww_pylon_nacelle_C2_BLT
    {
        type            subTriSurfaceMesh;
        surface         "CRM_2p4_ONERA_LDG_v01-Zones-2.obj.gz";
        patches         ( ww_pylon_nacelle_C2 );
    }
    ww_pylon_nacelle_C1_BLT
    {
        type            subTriSurfaceMesh;
        surface         "CRM_2p4_ONERA_LDG_v01-Zones-2.obj.gz";
        patches         ( ww_pylon_nacelle_C1 );
    }
    ww_wing_PS_E1_BLT
    {
        type            subTriSurfaceMesh;
        surface         "CRM_2p4_ONERA_LDG_v01-Zones-2.obj.gz";
        patches         ( ww_wing_PS_E1 );
    }
    ww_wing_PS_D4_BLT
    {
        type            subTriSurfaceMesh;
        surface         "CRM_2p4_ONERA_LDG_v01-Zones-2.obj.gz";
        patches         ( ww_wing_PS_D4 );
    }
    ww_wing_PS_D3_BLT
    {
        type            subTriSurfaceMesh;
        surface         "CRM_2p4_ONERA_LDG_v01-Zones-2.obj.gz";
        patches         ( ww_wing_PS_D3 );
    }
    ww_wing_PS_D2_BLT
    {
        type            subTriSurfaceMesh;
        surface         "CRM_2p4_ONERA_LDG_v01-Zones-2.obj.gz";
        patches         ( ww_wing_PS_D2 );
    }
    ww_wing_PS_D1_BLT
    {
        type            subTriSurfaceMesh;
        surface         "CRM_2p4_ONERA_LDG_v01-Zones-2.obj.gz";
        patches         ( ww_wing_PS_D1 );
    }
    ww_wing_PS_C4_BLT
    {
        type            subTriSurfaceMesh;
        surface         "CRM_2p4_ONERA_LDG_v01-Zones-2.obj.gz";
        patches         ( ww_wing_PS_C4 );
    }
    ww_wing_PS_C3_BLT
    {
        type            subTriSurfaceMesh;
        surface         "CRM_2p4_ONERA_LDG_v01-Zones-2.obj.gz";
        patches         ( ww_wing_PS_C3 );
    }
    ww_wing_PS_C2_BLT
    {
        type            subTriSurfaceMesh;
        surface         "CRM_2p4_ONERA_LDG_v01-Zones-2.obj.gz";
        patches         ( ww_wing_PS_C2 );
    }
    ww_wing_PS_C1_BLT
    {
        type            subTriSurfaceMesh;
        surface         "CRM_2p4_ONERA_LDG_v01-Zones-2.obj.gz";
        patches         ( ww_wing_PS_C1 );
    }
    ww_wing_PS_B4_BLT
    {
        type            subTriSurfaceMesh;
        surface         "CRM_2p4_ONERA_LDG_v01-Zones-2.obj.gz";
        patches         ( ww_wing_PS_B4 );
    }
    ww_wing_PS_B3_BLT
    {
        type            subTriSurfaceMesh;
        surface         "CRM_2p4_ONERA_LDG_v01-Zones-2.obj.gz";
        patches         ( ww_wing_PS_B3 );
    }
    ww_wing_PS_B2_BLT
    {
        type            subTriSurfaceMesh;
        surface         "CRM_2p4_ONERA_LDG_v01-Zones-2.obj.gz";
        patches         ( ww_wing_PS_B2 );
    }
    ww_wing_PS_B1_BLT
    {
        type            subTriSurfaceMesh;
        surface         "CRM_2p4_ONERA_LDG_v01-Zones-2.obj.gz";
        patches         ( ww_wing_PS_B1 );
    }
    ww_wing_PS_A4_BLT
    {
        type            subTriSurfaceMesh;
        surface         "CRM_2p4_ONERA_LDG_v01-Zones-2.obj.gz";
        patches         ( ww_wing_PS_A4 );
    }
    ww_wing_PS_A3_BLT
    {
        type            subTriSurfaceMesh;
        surface         "CRM_2p4_ONERA_LDG_v01-Zones-2.obj.gz";
        patches         ( ww_wing_PS_A3 );
    }
    ww_wing_PS_A2_BLT
    {
        type            subTriSurfaceMesh;
        surface         "CRM_2p4_ONERA_LDG_v01-Zones-2.obj.gz";
        patches         ( ww_wing_PS_A2 );
    }
    ww_wing_PS_A1_BLT
    {
        type            subTriSurfaceMesh;
        surface         "CRM_2p4_ONERA_LDG_v01-Zones-2.obj.gz";
        patches         ( ww_wing_PS_A1 );
    }
    ww_wing_TE_BLT
    {
        type            subTriSurfaceMesh;
        surface         "CRM_2p4_ONERA_LDG_v01-Zones-2.obj.gz";
        patches         ( ww_wing_TE );
    }
    ww_wing_SS_E1_BLT
    {
        type            subTriSurfaceMesh;
        surface         "CRM_2p4_ONERA_LDG_v01-Zones-2.obj.gz";
        patches         ( ww_wing_SS_E1 );
    }
    ww_wing_SS_D4_BLT
    {
        type            subTriSurfaceMesh;
        surface         "CRM_2p4_ONERA_LDG_v01-Zones-2.obj.gz";
        patches         ( ww_wing_SS_D4 );
    }
    ww_wing_SS_D3_BLT
    {
        type            subTriSurfaceMesh;
        surface         "CRM_2p4_ONERA_LDG_v01-Zones-2.obj.gz";
        patches         ( ww_wing_SS_D3 );
    }
    ww_wing_SS_D2_BLT
    {
        type            subTriSurfaceMesh;
        surface         "CRM_2p4_ONERA_LDG_v01-Zones-2.obj.gz";
        patches         ( ww_wing_SS_D2 );
    }
    ww_wing_SS_D1_BLT
    {
        type            subTriSurfaceMesh;
        surface         "CRM_2p4_ONERA_LDG_v01-Zones-2.obj.gz";
        patches         ( ww_wing_SS_D1 );
    }
    ww_wing_SS_C4_BLT
    {
        type            subTriSurfaceMesh;
        surface         "CRM_2p4_ONERA_LDG_v01-Zones-2.obj.gz";
        patches         ( ww_wing_SS_C4 );
    }
    ww_wing_SS_C3_BLT
    {
        type            subTriSurfaceMesh;
        surface         "CRM_2p4_ONERA_LDG_v01-Zones-2.obj.gz";
        patches         ( ww_wing_SS_C3 );
    }
    ww_wing_SS_C2_BLT
    {
        type            subTriSurfaceMesh;
        surface         "CRM_2p4_ONERA_LDG_v01-Zones-2.obj.gz";
        patches         ( ww_wing_SS_C2 );
    }
    ww_wing_SS_C1_BLT
    {
        type            subTriSurfaceMesh;
        surface         "CRM_2p4_ONERA_LDG_v01-Zones-2.obj.gz";
        patches         ( ww_wing_SS_C1 );
    }
    ww_wing_SS_B4_BLT
    {
        type            subTriSurfaceMesh;
        surface         "CRM_2p4_ONERA_LDG_v01-Zones-2.obj.gz";
        patches         ( ww_wing_SS_B4 );
    }
    ww_wing_SS_B3_BLT
    {
        type            subTriSurfaceMesh;
        surface         "CRM_2p4_ONERA_LDG_v01-Zones-2.obj.gz";
        patches         ( ww_wing_SS_B3 );
    }
    ww_wing_SS_B2_BLT
    {
        type            subTriSurfaceMesh;
        surface         "CRM_2p4_ONERA_LDG_v01-Zones-2.obj.gz";
        patches         ( ww_wing_SS_B2 );
    }
    ww_wing_SS_B1_BLT
    {
        type            subTriSurfaceMesh;
        surface         "CRM_2p4_ONERA_LDG_v01-Zones-2.obj.gz";
        patches         ( ww_wing_SS_B1 );
    }
    ww_wing_SS_A4_BLT
    {
        type            subTriSurfaceMesh;
        surface         "CRM_2p4_ONERA_LDG_v01-Zones-2.obj.gz";
        patches         ( ww_wing_SS_A4 );
    }
    ww_wing_SS_A3_BLT
    {
        type            subTriSurfaceMesh;
        surface         "CRM_2p4_ONERA_LDG_v01-Zones-2.obj.gz";
        patches         ( ww_wing_SS_A3 );
    }
    ww_wing_SS_A2_BLT
    {
        type            subTriSurfaceMesh;
        surface         "CRM_2p4_ONERA_LDG_v01-Zones-2.obj.gz";
        patches         ( ww_wing_SS_A2 );
    }
    ww_wing_SS_A1_BLT
    {
        type            subTriSurfaceMesh;
        surface         "CRM_2p4_ONERA_LDG_v01-Zones-2.obj.gz";
        patches         ( ww_wing_SS_A1 );
    }
    ww_flap_TE_BLT
    {
        type            subTriSurfaceMesh;
        surface         "CRM_2p4_ONERA_LDG_v01-Zones-2.obj.gz";
        patches         ( ww_flap_TE );
    }
    ww_flap_PS_B2_BLT
    {
        type            subTriSurfaceMesh;
        surface         "CRM_2p4_ONERA_LDG_v01-Zones-2.obj.gz";
        patches         ( ww_flap_PS_B2 );
    }
    ww_flap_PS_B1_BLT
    {
        type            subTriSurfaceMesh;
        surface         "CRM_2p4_ONERA_LDG_v01-Zones-2.obj.gz";
        patches         ( ww_flap_PS_B1 );
    }
    ww_flap_PS_A4_BLT
    {
        type            subTriSurfaceMesh;
        surface         "CRM_2p4_ONERA_LDG_v01-Zones-2.obj.gz";
        patches         ( ww_flap_PS_A4 );
    }
    ww_flap_PS_A3_BLT
    {
        type            subTriSurfaceMesh;
        surface         "CRM_2p4_ONERA_LDG_v01-Zones-2.obj.gz";
        patches         ( ww_flap_PS_A3 );
    }
    ww_flap_PS_A2_BLT
    {
        type            subTriSurfaceMesh;
        surface         "CRM_2p4_ONERA_LDG_v01-Zones-2.obj.gz";
        patches         ( ww_flap_PS_A2 );
    }
    ww_flap_PS_A1_BLT
    {
        type            subTriSurfaceMesh;
        surface         "CRM_2p4_ONERA_LDG_v01-Zones-2.obj.gz";
        patches         ( ww_flap_PS_A1 );
    }
    ww_flap_SS_B2_BLT
    {
        type            subTriSurfaceMesh;
        surface         "CRM_2p4_ONERA_LDG_v01-Zones-2.obj.gz";
        patches         ( ww_flap_SS_B2 );
    }
    ww_flap_SS_B1_BLT
    {
        type            subTriSurfaceMesh;
        surface         "CRM_2p4_ONERA_LDG_v01-Zones-2.obj.gz";
        patches         ( ww_flap_SS_B1 );
    }
    ww_flap_SS_A4_BLT
    {
        type            subTriSurfaceMesh;
        surface         "CRM_2p4_ONERA_LDG_v01-Zones-2.obj.gz";
        patches         ( ww_flap_SS_A4 );
    }
    ww_flap_SS_A3_BLT
    {
        type            subTriSurfaceMesh;
        surface         "CRM_2p4_ONERA_LDG_v01-Zones-2.obj.gz";
        patches         ( ww_flap_SS_A3 );
    }
    ww_flap_SS_A2_BLT
    {
        type            subTriSurfaceMesh;
        surface         "CRM_2p4_ONERA_LDG_v01-Zones-2.obj.gz";
        patches         ( ww_flap_SS_A2 );
    }
    ww_flap_SS_A1_BLT
    {
        type            subTriSurfaceMesh;
        surface         "CRM_2p4_ONERA_LDG_v01-Zones-2.obj.gz";
        patches         ( ww_flap_SS_A1 );
    }
    ww_slat_TE_BLT
    {
        type            subTriSurfaceMesh;
        surface         "CRM_2p4_ONERA_LDG_v01-Zones-2.obj.gz";
        patches         ( ww_slat_TE );
    }
    ww_slat_PS_A2_BLT
    {
        type            subTriSurfaceMesh;
        surface         "CRM_2p4_ONERA_LDG_v01-Zones-2.obj.gz";
        patches         ( ww_slat_PS_A2 );
    }
    ww_slat_PS_A1_BLT
    {
        type            subTriSurfaceMesh;
        surface         "CRM_2p4_ONERA_LDG_v01-Zones-2.obj.gz";
        patches         ( ww_slat_PS_A1 );
    }
    ww_slat_SS_B1_BLT
    {
        type            subTriSurfaceMesh;
        surface         "CRM_2p4_ONERA_LDG_v01-Zones-2.obj.gz";
        patches         ( ww_slat_SS_B1 );
    }
    ww_slat_SS_A4_BLT
    {
        type            subTriSurfaceMesh;
        surface         "CRM_2p4_ONERA_LDG_v01-Zones-2.obj.gz";
        patches         ( ww_slat_SS_A4 );
    }
    ww_slat_SS_A3_BLT
    {
        type            subTriSurfaceMesh;
        surface         "CRM_2p4_ONERA_LDG_v01-Zones-2.obj.gz";
        patches         ( ww_slat_SS_A3 );
    }
    ww_slat_SS_A2_BLT
    {
        type            subTriSurfaceMesh;
        surface         "CRM_2p4_ONERA_LDG_v01-Zones-2.obj.gz";
        patches         ( ww_slat_SS_A2 );
    }
    ww_slat_SS_A1_BLT
    {
        type            subTriSurfaceMesh;
        surface         "CRM_2p4_ONERA_LDG_v01-Zones-2.obj.gz";
        patches         ( ww_slat_SS_A1 );
    }
    ww_chine_nacelle_C3_BLT
    {
        type            subTriSurfaceMesh;
        surface         "CRM_2p4_ONERA_LDG_v01-Zones-2.obj.gz";
        patches         ( ww_chine_nacelle_C3 );
    }
    ww_chine_nacelle_C2_BLT
    {
        type            subTriSurfaceMesh;
        surface         "CRM_2p4_ONERA_LDG_v01-Zones-2.obj.gz";
        patches         ( ww_chine_nacelle_C2 );
    }
    ww_chine_nacelle_C1_BLT
    {
        type            subTriSurfaceMesh;
        surface         "CRM_2p4_ONERA_LDG_v01-Zones-2.obj.gz";
        patches         ( ww_chine_nacelle_C1 );
    }
    ww_chine_nacelle_B4_BLT
    {
        type            subTriSurfaceMesh;
        surface         "CRM_2p4_ONERA_LDG_v01-Zones-2.obj.gz";
        patches         ( ww_chine_nacelle_B4 );
    }
    ww_nacelle_TE_BLT
    {
        type            subTriSurfaceMesh;
        surface         "CRM_2p4_ONERA_LDG_v01-Zones-2.obj.gz";
        patches         ( ww_nacelle_TE );
    }
    ww_nacelle_D3_BLT
    {
        type            subTriSurfaceMesh;
        surface         "CRM_2p4_ONERA_LDG_v01-Zones-2.obj.gz";
        patches         ( ww_nacelle_D3 );
    }
    ww_nacelle_D2_BLT
    {
        type            subTriSurfaceMesh;
        surface         "CRM_2p4_ONERA_LDG_v01-Zones-2.obj.gz";
        patches         ( ww_nacelle_D2 );
    }
    ww_nacelle_D1_BLT
    {
        type            subTriSurfaceMesh;
        surface         "CRM_2p4_ONERA_LDG_v01-Zones-2.obj.gz";
        patches         ( ww_nacelle_D1 );
    }
    ww_nacelle_C4_BLT
    {
        type            subTriSurfaceMesh;
        surface         "CRM_2p4_ONERA_LDG_v01-Zones-2.obj.gz";
        patches         ( ww_nacelle_C4 );
    }
    ww_nacelle_C3_BLT
    {
        type            subTriSurfaceMesh;
        surface         "CRM_2p4_ONERA_LDG_v01-Zones-2.obj.gz";
        patches         ( ww_nacelle_C3 );
    }
    ww_nacelle_C2_BLT
    {
        type            subTriSurfaceMesh;
        surface         "CRM_2p4_ONERA_LDG_v01-Zones-2.obj.gz";
        patches         ( ww_nacelle_C2 );
    }
    ww_nacelle_C1_BLT
    {
        type            subTriSurfaceMesh;
        surface         "CRM_2p4_ONERA_LDG_v01-Zones-2.obj.gz";
        patches         ( ww_nacelle_C1 );
    }
    ww_nacelle_B4_BLT
    {
        type            subTriSurfaceMesh;
        surface         "CRM_2p4_ONERA_LDG_v01-Zones-2.obj.gz";
        patches         ( ww_nacelle_B4 );
    }
    ww_nacelle_B3_BLT
    {
        type            subTriSurfaceMesh;
        surface         "CRM_2p4_ONERA_LDG_v01-Zones-2.obj.gz";
        patches         ( ww_nacelle_B3 );
    }
    ww_nacelle_B2_BLT
    {
        type            subTriSurfaceMesh;
        surface         "CRM_2p4_ONERA_LDG_v01-Zones-2.obj.gz";
        patches         ( ww_nacelle_B2 );
    }
    ww_nacelle_B1_BLT
    {
        type            subTriSurfaceMesh;
        surface         "CRM_2p4_ONERA_LDG_v01-Zones-2.obj.gz";
        patches         ( ww_nacelle_B1 );
    }
    ww_nacelle_A4_BLT
    {
        type            subTriSurfaceMesh;
        surface         "CRM_2p4_ONERA_LDG_v01-Zones-2.obj.gz";
        patches         ( ww_nacelle_A4 );
    }
    ww_nacelle_A3_BLT
    {
        type            subTriSurfaceMesh;
        surface         "CRM_2p4_ONERA_LDG_v01-Zones-2.obj.gz";
        patches         ( ww_nacelle_A3 );
    }
    ww_nacelle_A2_BLT
    {
        type            subTriSurfaceMesh;
        surface         "CRM_2p4_ONERA_LDG_v01-Zones-2.obj.gz";
        patches         ( ww_nacelle_A2 );
    }
    ww_nacelle_A1_BLT
    {
        type            subTriSurfaceMesh;
        surface         "CRM_2p4_ONERA_LDG_v01-Zones-2.obj.gz";
        patches         ( ww_nacelle_A1 );
    }
    ww_stabilizer_horizontal_PS_D2_BLT
    {
        type            subTriSurfaceMesh;
        surface         "CRM_2p4_ONERA_LDG_v01-Zones-2.obj.gz";
        patches         ( ww_stabilizer_horizontal_PS_D2 );
    }
    ww_stabilizer_horizontal_PS_D1_BLT
    {
        type            subTriSurfaceMesh;
        surface         "CRM_2p4_ONERA_LDG_v01-Zones-2.obj.gz";
        patches         ( ww_stabilizer_horizontal_PS_D1 );
    }
    ww_stabilizer_horizontal_PS_C4_BLT
    {
        type            subTriSurfaceMesh;
        surface         "CRM_2p4_ONERA_LDG_v01-Zones-2.obj.gz";
        patches         ( ww_stabilizer_horizontal_PS_C4 );
    }
    ww_stabilizer_horizontal_PS_C3_BLT
    {
        type            subTriSurfaceMesh;
        surface         "CRM_2p4_ONERA_LDG_v01-Zones-2.obj.gz";
        patches         ( ww_stabilizer_horizontal_PS_C3 );
    }
    ww_stabilizer_horizontal_PS_C2_BLT
    {
        type            subTriSurfaceMesh;
        surface         "CRM_2p4_ONERA_LDG_v01-Zones-2.obj.gz";
        patches         ( ww_stabilizer_horizontal_PS_C2 );
    }
    ww_stabilizer_horizontal_PS_C1_BLT
    {
        type            subTriSurfaceMesh;
        surface         "CRM_2p4_ONERA_LDG_v01-Zones-2.obj.gz";
        patches         ( ww_stabilizer_horizontal_PS_C1 );
    }
    ww_stabilizer_horizontal_PS_B4_BLT
    {
        type            subTriSurfaceMesh;
        surface         "CRM_2p4_ONERA_LDG_v01-Zones-2.obj.gz";
        patches         ( ww_stabilizer_horizontal_PS_B4 );
    }
    ww_stabilizer_horizontal_PS_B3_BLT
    {
        type            subTriSurfaceMesh;
        surface         "CRM_2p4_ONERA_LDG_v01-Zones-2.obj.gz";
        patches         ( ww_stabilizer_horizontal_PS_B3 );
    }
    ww_stabilizer_horizontal_PS_B2_BLT
    {
        type            subTriSurfaceMesh;
        surface         "CRM_2p4_ONERA_LDG_v01-Zones-2.obj.gz";
        patches         ( ww_stabilizer_horizontal_PS_B2 );
    }
    ww_stabilizer_horizontal_PS_B1_BLT
    {
        type            subTriSurfaceMesh;
        surface         "CRM_2p4_ONERA_LDG_v01-Zones-2.obj.gz";
        patches         ( ww_stabilizer_horizontal_PS_B1 );
    }
    ww_stabilizer_horizontal_PS_A4_BLT
    {
        type            subTriSurfaceMesh;
        surface         "CRM_2p4_ONERA_LDG_v01-Zones-2.obj.gz";
        patches         ( ww_stabilizer_horizontal_PS_A4 );
    }
    ww_stabilizer_horizontal_PS_A3_BLT
    {
        type            subTriSurfaceMesh;
        surface         "CRM_2p4_ONERA_LDG_v01-Zones-2.obj.gz";
        patches         ( ww_stabilizer_horizontal_PS_A3 );
    }
    ww_stabilizer_horizontal_PS_A2_BLT
    {
        type            subTriSurfaceMesh;
        surface         "CRM_2p4_ONERA_LDG_v01-Zones-2.obj.gz";
        patches         ( ww_stabilizer_horizontal_PS_A2 );
    }
    ww_stabilizer_horizontal_PS_A1_BLT
    {
        type            subTriSurfaceMesh;
        surface         "CRM_2p4_ONERA_LDG_v01-Zones-2.obj.gz";
        patches         ( ww_stabilizer_horizontal_PS_A1 );
    }
    ww_stabilizer_horizontal_TE_BLT
    {
        type            subTriSurfaceMesh;
        surface         "CRM_2p4_ONERA_LDG_v01-Zones-2.obj.gz";
        patches         ( ww_stabilizer_horizontal_TE );
    }
    ww_stabilizer_horizontal_SS_D2_BLT
    {
        type            subTriSurfaceMesh;
        surface         "CRM_2p4_ONERA_LDG_v01-Zones-2.obj.gz";
        patches         ( ww_stabilizer_horizontal_SS_D2 );
    }
    ww_stabilizer_horizontal_SS_D1_BLT
    {
        type            subTriSurfaceMesh;
        surface         "CRM_2p4_ONERA_LDG_v01-Zones-2.obj.gz";
        patches         ( ww_stabilizer_horizontal_SS_D1 );
    }
    ww_stabilizer_horizontal_SS_C4_BLT
    {
        type            subTriSurfaceMesh;
        surface         "CRM_2p4_ONERA_LDG_v01-Zones-2.obj.gz";
        patches         ( ww_stabilizer_horizontal_SS_C4 );
    }
    ww_stabilizer_horizontal_SS_C3_BLT
    {
        type            subTriSurfaceMesh;
        surface         "CRM_2p4_ONERA_LDG_v01-Zones-2.obj.gz";
        patches         ( ww_stabilizer_horizontal_SS_C3 );
    }
    ww_stabilizer_horizontal_SS_C2_BLT
    {
        type            subTriSurfaceMesh;
        surface         "CRM_2p4_ONERA_LDG_v01-Zones-2.obj.gz";
        patches         ( ww_stabilizer_horizontal_SS_C2 );
    }
    ww_stabilizer_horizontal_SS_C1_BLT
    {
        type            subTriSurfaceMesh;
        surface         "CRM_2p4_ONERA_LDG_v01-Zones-2.obj.gz";
        patches         ( ww_stabilizer_horizontal_SS_C1 );
    }
    ww_stabilizer_horizontal_SS_B4_BLT
    {
        type            subTriSurfaceMesh;
        surface         "CRM_2p4_ONERA_LDG_v01-Zones-2.obj.gz";
        patches         ( ww_stabilizer_horizontal_SS_B4 );
    }
    ww_stabilizer_horizontal_SS_B3_BLT
    {
        type            subTriSurfaceMesh;
        surface         "CRM_2p4_ONERA_LDG_v01-Zones-2.obj.gz";
        patches         ( ww_stabilizer_horizontal_SS_B3 );
    }
    ww_stabilizer_horizontal_SS_B2_BLT
    {
        type            subTriSurfaceMesh;
        surface         "CRM_2p4_ONERA_LDG_v01-Zones-2.obj.gz";
        patches         ( ww_stabilizer_horizontal_SS_B2 );
    }
    ww_stabilizer_horizontal_SS_B1_BLT
    {
        type            subTriSurfaceMesh;
        surface         "CRM_2p4_ONERA_LDG_v01-Zones-2.obj.gz";
        patches         ( ww_stabilizer_horizontal_SS_B1 );
    }
    ww_stabilizer_horizontal_SS_A4_BLT
    {
        type            subTriSurfaceMesh;
        surface         "CRM_2p4_ONERA_LDG_v01-Zones-2.obj.gz";
        patches         ( ww_stabilizer_horizontal_SS_A4 );
    }
    ww_stabilizer_horizontal_SS_A3_BLT
    {
        type            subTriSurfaceMesh;
        surface         "CRM_2p4_ONERA_LDG_v01-Zones-2.obj.gz";
        patches         ( ww_stabilizer_horizontal_SS_A3 );
    }
    ww_stabilizer_horizontal_SS_A2_BLT
    {
        type            subTriSurfaceMesh;
        surface         "CRM_2p4_ONERA_LDG_v01-Zones-2.obj.gz";
        patches         ( ww_stabilizer_horizontal_SS_A2 );
    }
    ww_stabilizer_horizontal_SS_A1_BLT
    {
        type            subTriSurfaceMesh;
        surface         "CRM_2p4_ONERA_LDG_v01-Zones-2.obj.gz";
        patches         ( ww_stabilizer_horizontal_SS_A1 );
    }
    ww_stabilizer_vertical_TE_BLT
    {
        type            subTriSurfaceMesh;
        surface         "CRM_2p4_ONERA_LDG_v01-Zones-2.obj.gz";
        patches         ( ww_stabilizer_vertical_TE );
    }
    ww_stabilizer_vertical_D4_BLT
    {
        type            subTriSurfaceMesh;
        surface         "CRM_2p4_ONERA_LDG_v01-Zones-2.obj.gz";
        patches         ( ww_stabilizer_vertical_D4 );
    }
    ww_stabilizer_vertical_D3_BLT
    {
        type            subTriSurfaceMesh;
        surface         "CRM_2p4_ONERA_LDG_v01-Zones-2.obj.gz";
        patches         ( ww_stabilizer_vertical_D3 );
    }
    ww_stabilizer_vertical_D2_BLT
    {
        type            subTriSurfaceMesh;
        surface         "CRM_2p4_ONERA_LDG_v01-Zones-2.obj.gz";
        patches         ( ww_stabilizer_vertical_D2 );
    }
    ww_stabilizer_vertical_D1_BLT
    {
        type            subTriSurfaceMesh;
        surface         "CRM_2p4_ONERA_LDG_v01-Zones-2.obj.gz";
        patches         ( ww_stabilizer_vertical_D1 );
    }
    ww_stabilizer_vertical_C4_BLT
    {
        type            subTriSurfaceMesh;
        surface         "CRM_2p4_ONERA_LDG_v01-Zones-2.obj.gz";
        patches         ( ww_stabilizer_vertical_C4 );
    }
    ww_stabilizer_vertical_C3_BLT
    {
        type            subTriSurfaceMesh;
        surface         "CRM_2p4_ONERA_LDG_v01-Zones-2.obj.gz";
        patches         ( ww_stabilizer_vertical_C3 );
    }
    ww_stabilizer_vertical_C2_BLT
    {
        type            subTriSurfaceMesh;
        surface         "CRM_2p4_ONERA_LDG_v01-Zones-2.obj.gz";
        patches         ( ww_stabilizer_vertical_C2 );
    }