/*--------------------------------*- C++ -*----------------------------------*\
| =========                 |                                                 |
| \\      /  F ield         | OpenFOAM: The Open Source CFD Toolbox           |
|  \\    /   O peration     | Version:  v2106                                 |
|   \\  /    A nd           | Website:  www.openfoam.com                      |
|    \\/     M anipulation  |                                                 |
\*---------------------------------------------------------------------------*/
FoamFile
{
    version     2.0;
    format      ascii;
    class       dictionary;
    object      controlDict;
}
// * * * * * * * * * * * * * * * * * * * * * * * * * * * * * * * * * * * * * //

application     XiFoam;

startFrom       startTime;

startTime       0;

stopAt          endTime;

endTime         0.2;

deltaT          14e-7;

writeControl    runTime;

writeInterval   1e-2;

purgeWrite      0;

writeFormat     ascii;

writePrecision  10;

writeCompression off;

timeFormat      general;

timePrecision   6;

runTimeModifiable yes;

functions
{
    #include "FOwallClockTimeStatistics"

    fieldAverage1
    {
        type            fieldAverage;
        libs            (fieldFunctionObjects);
        writeControl    writeTime;
        fields
        (
            U
            {
                mean        on;
                prime2Mean  off;
                base        time;
            }
            T
            {
                mean        on;
                prime2Mean  off;
                base        time;
            }
            p
            {
                mean        off;
                prime2Mean  off;
                base        time;
            }
        );
        // Optional entries (runtime modifiable)
        restartOnRestart    false;
        restartOnOutput     false;
        periodicRestart     true;
        restartPeriod       0.1;
        // Optional (inherited) entries
        region          region0;
        enabled         true;
        log             true;
        timeStart       0.02;
        timeEnd         1000;
    }
}

// ************************************************************************* //
