/*--------------------------------*- C++ -*----------------------------------*\
| =========                 |                                                 |
| \\      /  F ield         | OpenFOAM: The Open Source CFD Toolbox           |
|  \\    /   O peration     | Version:  v2212                                 |
|   \\  /    A nd           | Website:  www.openfoam.com                      |
|    \\/     M anipulation  |                                                 |
\*---------------------------------------------------------------------------*/
FoamFile
{
    version     2.0;
    format      ascii;
    class       dictionary;
    object      blockMeshDict;
}
// * * * * * * * * * * * * * * * * * * * * * * * * * * * * * * * * * * * * * //

scale 1;

xMin 0;
xMax 10.8;
yMin 0;
yMax 1.8;
zMin 0;
zMax 0.87;

xElem 648; 
yElem 108;
zElem 108;

vertices
(
    ($xMin $yMin $zMin) // 0
    ($xMax $yMin $zMin) // 1
    ($xMax $yMax $zMin) // 2
    ($xMin $yMax $zMin) // 3
    ($xMin $yMin $zMax) // 4
    ($xMax $yMin $zMax) // 5
    ($xMax $yMax $zMax) // 6
    ($xMin $yMax $zMax) // 7
);

blocks
(
    hex (0 1 2 3 4 5 6 7) ($xElem $yElem $zElem) simpleGrading (1 1 1)
);

edges
(
);

boundary
(
    inlet
    {
        type patch;
        faces
        (
            (0 3 4 7)
        );
    }
    outlet
    {
        type patch;
        faces
        (
            (1 2 5 6)
        );
    }
    bottom
    {
        type wall;
        faces
        (
            (0 1 2 3)
        );
    }
    top
    {
        type wall;
        faces
        (
            (4 5 6 7)
        );
    }
    side1
    {
        type wall;
        faces
        (
            (0 1 4 5)
        );
    }
    side2
    {
        type wall;
        faces
        (
            (2 3 6 7)
        );
    }
);

mergePatchPairs
(
);

// ************************************************************************* //
