/*--------------------------------*- C++ -*----------------------------------*\
| =========                 |                                                 |
| \\      /  F ield         | OpenFOAM: The Open Source CFD Toolbox           |
|  \\    /   O peration     | Version:  v2212                                 |
|   \\  /    A nd           | Website:  www.openfoam.com                      |
|    \\/     M anipulation  |                                                 |
\*---------------------------------------------------------------------------*/
FoamFile
{
    version     2.0;
    format      ascii;
    class       dictionary;
    object      topoSetDict;
}
// * * * * * * * * * * * * * * * * * * * * * * * * * * * * * * * * * * * * * //

actions
(
{					
	name	actuationDisk1;			
	type	cellSet;				
	action	new;				
	source	cylinderToCell;				
	sourceInfo					
	{					
		p1	(2.965 0.9 0.125);
		p2	(3.025 0.9 0.125);
		radius	0.08;			
	}					
}					
);

// ************************************************************************* //
