/*--------------------------------*- C++ -*----------------------------------*\
| =========                 |                                                 |
| \\      /  F ield         | OpenFOAM: The Open Source CFD Toolbox           |
|  \\    /   O peration     | Version:  v2212                                 |
|   \\  /    A nd           | Website:  www.openfoam.com                      |
|    \\/     M anipulation  |                                                 |
\*---------------------------------------------------------------------------*/
FoamFile
{
    version     2.0;
    format      ascii;
    class       dictionary;
    object      topoSetDict;
}
// * * * * * * * * * * * * * * * * * * * * * * * * * * * * * * * * * * * * * //

actions
(
{					
	name	actuationDisk1;			
	type	cellSet;				
	action	new;				
	source	cylinderToCell;				
	sourceInfo					
	{					
		p1	(2.965 0.3 0.125);
		p2	(3.025 0.3 0.125);
		radius	0.08;			
	}					
}					
{					
	name	actuationDisk2	;			
	type	cellSet;				
	action	new;				
	source	cylinderToCell;				
	sourceInfo					
	{					
		p1	(3.715 0.3 0.125);
		p2	(3.775 0.3 0.125);
		radius	0.08;			
	}					
}					
{					
	name	actuationDisk3	;			
	type	cellSet;				
	action	new;				
	source	cylinderToCell;				
	sourceInfo					
	{					
		p1	(4.465 0.3 0.125);
		p2	(4.525 0.3 0.125);
		radius	0.08;			
	}					
}					
{					
	name	actuationDisk4	;			
	type	cellSet;				
	action	new;				
	source	cylinderToCell;				
	sourceInfo					
	{					
		p1	(5.215 0.3 0.125);
		p2	(5.275 0.3 0.125);
		radius	0.08;			
	}					
}					
{					
	name	actuationDisk5	;			
	type	cellSet;				
	action	new;				
	source	cylinderToCell;				
	sourceInfo					
	{					
		p1	(5.965 0.3 0.125);
		p2	(6.025 0.3 0.125);
		radius	0.08;			
	}					
}					
{					
	name	actuationDisk6	;			
	type	cellSet;				
	action	new;				
	source	cylinderToCell;				
	sourceInfo					
	{					
		p1	(6.715 0.3 0.125);
		p2	(6.775 0.3 0.125);
		radius	0.08;			
	}					
}					
{					
	name	actuationDisk7	;			
	type	cellSet;				
	action	new;				
	source	cylinderToCell;				
	sourceInfo					
	{					
		p1	(7.465 0.3 0.125);
		p2	(7.525 0.3 0.125);
		radius	0.08;			
	}					
}					
{					
	name	actuationDisk8	;			
	type	cellSet;				
	action	new;				
	source	cylinderToCell;				
	sourceInfo					
	{					
		p1	(8.215 0.3 0.125);
		p2	(8.275 0.3 0.125);
		radius	0.08;			
	}					
}					
{					
	name	actuationDisk9	;			
	type	cellSet;				
	action	new;				
	source	cylinderToCell;				
	sourceInfo					
	{					
		p1	(8.965 0.3 0.125);
		p2	(9.025 0.3 0.125);
		radius	0.08;			
	}					
}					
{					
	name	actuationDisk10	;			
	type	cellSet;				
	action	new;				
	source	cylinderToCell;				
	sourceInfo					
	{					
		p1	(9.715 0.3 0.125);
		p2	(9.775 0.3 0.125);
		radius	0.08;			
	}					
}					
{					
	name	actuationDisk11	;			
	type	cellSet;				
	action	new;				
	source	cylinderToCell;				
	sourceInfo					
	{					
		p1	(2.965 0.9 0.125);
		p2	(3.025 0.9 0.125);
		radius	0.08;			
	}					
}					
{					
	name	actuationDisk12	;			
	type	cellSet;				
	action	new;				
	source	cylinderToCell;				
	sourceInfo					
	{					
		p1	(3.715 0.9 0.125);
		p2	(3.775 0.9 0.125);
		radius	0.08;			
	}					
}					
{					
	name	actuationDisk13	;			
	type	cellSet;				
	action	new;				
	source	cylinderToCell;				
	sourceInfo					
	{					
		p1	(4.465 0.9 0.125);
		p2	(4.525 0.9 0.125);
		radius	0.08;			
	}					
}					
{					
	name	actuationDisk14	;			
	type	cellSet;				
	action	new;				
	source	cylinderToCell;				
	sourceInfo					
	{					
		p1	(5.215 0.9 0.125);
		p2	(5.275 0.9 0.125);
		radius	0.08;			
	}					
}					
{					
	name	actuationDisk15	;			
	type	cellSet;				
	action	new;				
	source	cylinderToCell;				
	sourceInfo					
	{					
		p1	(5.965 0.9 0.125);
		p2	(6.025 0.9 0.125);
		radius	0.08;			
	}					
}					
{					
	name	actuationDisk16	;			
	type	cellSet;				
	action	new;				
	source	cylinderToCell;				
	sourceInfo					
	{					
		p1	(6.715 0.9 0.125);
		p2	(6.775 0.9 0.125);
		radius	0.08;			
	}					
}					
{					
	name	actuationDisk17	;			
	type	cellSet;				
	action	new;				
	source	cylinderToCell;				
	sourceInfo					
	{					
		p1	(7.465 0.9 0.125);
		p2	(7.525 0.9 0.125);
		radius	0.08;			
	}					
}					
{					
	name	actuationDisk18	;			
	type	cellSet;				
	action	new;				
	source	cylinderToCell;				
	sourceInfo					
	{					
		p1	(8.215 0.9 0.125);
		p2	(8.275 0.9 0.125);
		radius	0.08;			
	}					
}					
{					
	name	actuationDisk19	;			
	type	cellSet;				
	action	new;				
	source	cylinderToCell;				
	sourceInfo					
	{					
		p1	(8.965 0.9 0.125);
		p2	(9.025 0.9 0.125);
		radius	0.08;			
	}					
}					
{					
	name	actuationDisk20	;			
	type	cellSet;				
	action	new;				
	source	cylinderToCell;				
	sourceInfo					
	{					
		p1	(9.715 0.9 0.125);
		p2	(9.775 0.9 0.125);
		radius	0.08;			
	}					
}					
{					
	name	actuationDisk21	;			
	type	cellSet;				
	action	new;				
	source	cylinderToCell;				
	sourceInfo					
	{					
		p1	(2.965 1.5 0.125);
		p2	(3.025 1.5 0.125);
		radius	0.08;			
	}					
}					
{					
	name	actuationDisk22	;			
	type	cellSet;				
	action	new;				
	source	cylinderToCell;				
	sourceInfo					
	{					
		p1	(3.715 1.5 0.125);
		p2	(3.775 1.5 0.125);
		radius	0.08;			
	}					
}					
{					
	name	actuationDisk23	;			
	type	cellSet;				
	action	new;				
	source	cylinderToCell;				
	sourceInfo					
	{					
		p1	(4.465 1.5 0.125);
		p2	(4.525 1.5 0.125);
		radius	0.08;			
	}					
}					
{					
	name	actuationDisk24	;			
	type	cellSet;				
	action	new;				
	source	cylinderToCell;				
	sourceInfo					
	{					
		p1	(5.215 1.5 0.125);
		p2	(5.275 1.5 0.125);
		radius	0.08;			
	}					
}					
{					
	name	actuationDisk25	;			
	type	cellSet;				
	action	new;				
	source	cylinderToCell;				
	sourceInfo					
	{					
		p1	(5.965 1.5 0.125);
		p2	(6.025 1.5 0.125);
		radius	0.08;			
	}					
}					
{					
	name	actuationDisk26	;			
	type	cellSet;				
	action	new;				
	source	cylinderToCell;				
	sourceInfo					
	{					
		p1	(6.715 1.5 0.125);
		p2	(6.775 1.5 0.125);
		radius	0.08;			
	}					
}					
{					
	name	actuationDisk27	;			
	type	cellSet;				
	action	new;				
	source	cylinderToCell;				
	sourceInfo					
	{					
		p1	(7.465 1.5 0.125);
		p2	(7.525 1.5 0.125);
		radius	0.08;			
	}					
}					
{					
	name	actuationDisk28	;			
	type	cellSet;				
	action	new;				
	source	cylinderToCell;				
	sourceInfo					
	{					
		p1	(8.215 1.5 0.125);
		p2	(8.275 1.5 0.125);
		radius	0.08;			
	}					
}					
{					
	name	actuationDisk29	;			
	type	cellSet;				
	action	new;				
	source	cylinderToCell;				
	sourceInfo					
	{					
		p1	(8.965 1.5 0.125);
		p2	(9.025 1.5 0.125);
		radius	0.08;			
	}					
}					
{					
	name	actuationDisk30	;			
	type	cellSet;				
	action	new;				
	source	cylinderToCell;				
	sourceInfo					
	{					
		p1	(9.715 1.5 0.125);
		p2	(9.775 1.5 0.125);
		radius	0.08;			
	}					
}					

);

// ************************************************************************* //
