/*--------------------------------*- C++ -*----------------------------------*\
| =========                 |                                                 |
| \\      /  F ield         | OpenFOAM: The Open Source CFD Toolbox           |
|  \\    /   O peration     | Version:  v2012                                 |
|   \\  /    A nd           | Website:  www.openfoam.com                      |
|    \\/     M anipulation  |                                                 |
\*---------------------------------------------------------------------------*/
FoamFile
{
    version     2.0;
    format      ascii;
    class       volScalarField;
    object      p;
}
// * * * * * * * * * * * * * * * * * * * * * * * * * * * * * * * * * * * * * //

#include        "${FOAM_CASE}/system/include/caseDefinition"

dimensions      [1 -1 -2 0 0 0 0];
internalField   uniform $pref;

boundaryField
{
    "(ff_xMin|ff_yMin)"
    {
        type            zeroGradient;
    }

    "(ff_xMax|ff_yMax)"
    {
        type            uniformFixedValue;
        uniformValue    constant $pref;
        value           $internalField;
    }

    "ww_.*"
    {
        type            zeroGradient;
    }

    #include            "include/spanwisePatches"
}

// ************************************************************************* //
