/*--------------------------------*- C++ -*----------------------------------*\
| =========                 |                                                 |
| \\      /  F ield         | OpenFOAM: The Open Source CFD Toolbox           |
|  \\    /   O peration     | Version:  v2212                                 |
|   \\  /    A nd           | Website:  www.openfoam.com                      |
|    \\/     M anipulation  |                                                 |
\*---------------------------------------------------------------------------*/
FoamFile
{
    version     2.0;
    format      ascii;
    class       dictionary;
    object      blockMeshDict;
}
scale 1;

vertices
( 
    ( -11.1566 -8.5 -0.09 )
    ( 24.8434 -8.5 -0.09 )
    ( 24.8434 0 -0.09 )
    ( -11.1566 0 -0.09 )
    ( -11.1566 -8.5 7.41 )
    ( 24.8434 -8.5 7.41 )
    ( 24.8434 0 7.41 )
    ( -11.1566 0 7.41 )
);

blocks
(
    hex ( 0 1 2 3 4 5 6 7 ) ( 72 17 15 ) simpleGrading ( 1 1 1 )
);

edges
(
);

boundary
(
    XMin
    {
        type patch;
        faces ( ( 0 4 7 3 ) );
    }
    XMax
    {
        type patch;
        faces ( ( 1 2 6 5 ) );
    }
    YMin
    {
        type symmetry;
        faces ( ( 0 1 5 4 ) );
    }
    YMax
    {
        type symmetry;
        faces ( ( 3 7 6 2 ) );
    }
    ZMin
    {
        type wall;
        faces ( ( 0 3 2 1 ) ) ;
    }
    ZMax
    {
        type symmetry;
        faces ( ( 4 5 6 7 ) );
    }
);
