/*--------------------------------*- C++ -*----------------------------------*\
| =========                 |                                                 |
| \\      /  F ield         | OpenFOAM: The Open Source CFD Toolbox           |
|  \\    /   O peration     | Version:  v2206                                 |
|   \\  /    A nd           | Website:  www.openfoam.com                      |
|    \\/     M anipulation  |                                                 |
\*---------------------------------------------------------------------------*/
FoamFile
{
    version     2.0;
    format      ascii;
    class       dictionary;
    object      createPatchDict;
}
// * * * * * * * * * * * * * * * * * * * * * * * * * * * * * * * * * * * * * //

// Do a synchronisation of coupled points after creation of any patches.
// Note: this does not work with points that are on multiple coupled patches
//       with transformations (i.e. cyclics).
pointSync false;

// Patches to create.
patches
(
    {
        //- Master side patch
        name            AMI1;
        patchInfo
        {
            type            cyclicAMI;
            matchTolerance  0.0001;
            neighbourPatch  AMI1_rotor;
            transform       noOrdering;
            lowWeightCorection 0.1;
        }
        constructFrom patches;
        patches (innerCylinderSmall_1);
    }

    {
        //- Slave side patch
        name            AMI1_rotor;
        patchInfo
        {
            type            cyclicAMI;
            matchTolerance  0.0001;
            neighbourPatch  AMI1;
            transform       noOrdering;
            lowWeightCorection 0.1;
        }
        constructFrom patches;
        patches (innerCylinderSmall_1_rotor);
    }
    {
        //- Master side patch
        name            AMI2;
        patchInfo
        {
            type            cyclicAMI;
            matchTolerance  0.0001;
            neighbourPatch  AMI2_rotor;
            transform       noOrdering;
            lowWeightCorection 0.1;
        }
        constructFrom patches;
        patches (innerCylinderSmall_2);
    }

    {
        //- Slave side patch
        name            AMI2_rotor;
        patchInfo
        {
            type            cyclicAMI;
            matchTolerance  0.0001;
            neighbourPatch  AMI2;
            transform       noOrdering;
            lowWeightCorection 0.1;
        }
        constructFrom patches;
        patches (innerCylinderSmall_2_rotor);
    }
);

// ************************************************************************* //
