/*--------------------------------*- C++ -*----------------------------------*\
  =========                 |
  \\      /  F ield         | OpenFOAM: The Open Source CFD Toolbox
   \\    /   O peration     | Website:  https://openfoam.org
    \\  /    A nd           | Version:  9
     \\/     M anipulation  |
\*---------------------------------------------------------------------------*/
FoamFile
{
    format      ascii;
    class       featureEdgeMesh;
    location    "constant/triSurface";
    object      DLRCJH.eMesh;
}
// * * * * * * * * * * * * * * * * * * * * * * * * * * * * * * * * * * * * * //


// points:

16913
(
(0 0.047499999 -0.047499999)
(0 0.047499999 0.047499999)
(0 -0.047499999 -0.047499999)
(0 -0.047499999 0.047499999)
(0.84299999 -0.047499999 -0.047499999)
(0.84299999 -0.047499999 0.047499999)
(0.84299999 0.047499999 0.047499999)
(0.84299999 0.047499999 -0.047499999)
(-0.0087932302 0.044930302 -0.029999999)
(-0.00879326 0.044930302 -0.029983999)
(-0.0087933503 0.0449301 -0.0299679)
(-0.0087935096 0.044929799 -0.0299519)
(-0.0087937303 0.0449294 -0.0299358)
(-0.0087940199 0.044928901 -0.029919799)
(-0.0087943701 0.044928301 -0.029903701)
(-0.0087947799 0.044927601 -0.0298877)
(-0.0087952502 0.0449268 -0.0298717)
(-0.0087957904 0.044925898 -0.0298556)
(-0.0087963901 0.044924799 -0.0298396)
(-0.0087970505 0.0449237 -0.029823599)
(-0.0087977797 0.0449224 -0.029807599)
(-0.0087985704 0.0449211 -0.029791599)
(-0.0087994197 0.044919599 -0.0297757)
(-0.0088003399 0.044918001 -0.029759699)
(-0.0088013196 0.044916298 -0.029743699)
(-0.0088023599 0.044914499 -0.0297278)
(-0.0088034701 0.044912599 -0.0297118)
(-0.0088046296 0.044910599 -0.0296959)
(-0.0088058598 0.044908401 -0.029680001)
(-0.00880716 0.044906199 -0.029664099)
(-0.0088085104 0.0449038 -0.0296482)
(-0.0088099297 0.044901401 -0.029632401)
(-0.0088114096 0.044898801 -0.029616499)
(-0.00881295 0.0448961 -0.0296007)
(-0.0088145602 0.044893399 -0.0295849)
(-0.0088162301 0.044890501 -0.029569101)
(-0.0088179596 0.044887502 -0.0295534)
(-0.0088197496 0.044884399 -0.0295376)
(-0.0088216001 0.044881199 -0.029521899)
(-0.0088235196 0.044877801 -0.029506201)
(-0.0088254996 0.0448744 -0.029490501)
(-0.0088275401 0.044870902 -0.0294748)
(-0.0088296402 0.044867199 -0.029459201)
(-0.0088318 0.0448635 -0.029443599)
(-0.0088340295 0.044859599 -0.029428)
(-0.0088363104 0.044855699 -0.029412501)
(-0.0088386601 0.044851601 -0.029397)
(-0.0088410703 0.0448475 -0.029381501)
(-0.0088435402 0.044843201 -0.029366)
(-0.0088460697 0.044838801 -0.029350501)
(-0.0088486597 0.044834301 -0.0293351)
(-0.0088513102 0.0448297 -0.0293198)
(-0.0088540204 0.044824999 -0.0293044)
(-0.0088568004 0.044820201 -0.0292891)
(-0.0088596297 0.044815298 -0.029273801)
(-0.0088625196 0.044810299 -0.0292586)
(-0.0088654803 0.044805199 -0.0292434)
(-0.0088684903 0.044799998 -0.029228199)
(-0.00887156 0.0447946 -0.029213)
(-0.0088747004 0.044789199 -0.0291979)
(-0.0088778902 0.0447837 -0.0291829)
(-0.0088811396 0.044778001 -0.029167799)
(-0.0088844504 0.044772301 -0.0291529)
(-0.0088878199 0.044766501 -0.0291379)
(-0.00889125 0.044760499 -0.029123001)
(-0.0088947397 0.044754501 -0.0291081)
(-0.0088982796 0.044748399 -0.029093301)
(-0.0089018904 0.0447421 -0.0290785)
(-0.0089055505 0.0447358 -0.0290638)
(-0.0089092702 0.0447293 -0.0290491)
(-0.0089130504 0.044722799 -0.0290344)
(-0.00891688 0.044716101 -0.029019799)
(-0.0089207804 0.044709399 -0.0290052)
(-0.0089247301 0.0447025 -0.028990701)
(-0.0089287404 0.044695601 -0.028976301)
(-0.0089328 0.044688601 -0.0289618)
(-0.0089369202 0.0446814 -0.028947501)
(-0.0089411 0.044674199 -0.0289331)
(-0.0089453403 0.044666901 -0.0289189)
(-0.00894963 0.044659398 -0.0289046)
(-0.0089539699 0.044651899 -0.0288905)
(-0.0089583797 0.0446443 -0.028876301)
(-0.0089628296 0.044636499 -0.028862299)
(-0.0089673502 0.044628698 -0.0288483)
(-0.0089719202 0.044620801 -0.0288343)
(-0.0089765396 0.044612799 -0.028820399)
(-0.0089812204 0.0446047 -0.0288065)
(-0.0089859497 0.044596501 -0.0287927)
(-0.0089907404 0.044588201 -0.028779)
(-0.0089955796 0.0445798 -0.0287653)
(-0.0090004802 0.0445714 -0.028751699)
(-0.0090054199 0.044562802 -0.0287381)
(-0.0090104304 0.044554099 -0.0287246)
(-0.0090154801 0.044545401 -0.0287112)
(-0.0090205902 0.044536501 -0.0286978)
(-0.0090257498 0.044527601 -0.0286844)
(-0.0090309596 0.044518501 -0.028671199)
(-0.0090362299 0.0445094 -0.028658001)
(-0.0090415496 0.044500198 -0.0286448)
(-0.0090469196 0.0444909 -0.0286317)
(-0.0090523399 0.044481501 -0.028618701)
(-0.0090578096 0.044472001 -0.0286058)
(-0.0090633295 0.044462498 -0.028592899)
(-0.00906891 0.044452801 -0.028580099)
(-0.0090745296 0.044443101 -0.028567299)
(-0.0090802005 0.044433299 -0.0285546)
(-0.00908593 0.044423301 -0.028542001)
(-0.0090917004 0.044413298 -0.028529501)
(-0.0090975203 0.0444033 -0.028517)
(-0.0091033997 0.0443931 -0.028504601)
(-0.0091093201 0.044382799 -0.028492199)
(-0.0091152899 0.044372499 -0.0284799)
(-0.00912131 0.044362102 -0.0284677)
(-0.0091273701 0.0443516 -0.0284556)
(-0.0091334796 0.044341002 -0.0284435)
(-0.0091396403 0.044330299 -0.028431499)
(-0.0091458503 0.044319499 -0.028419601)
(-0.0091521097 0.0443087 -0.028407799)
(-0.0091584101 0.044297799 -0.028395999)
(-0.0091647599 0.044286799 -0.0283843)
(-0.0091711497 0.044275701 -0.028372699)
(-0.0091775898 0.0442646 -0.028361199)
(-0.0091840699 0.044253301 -0.028349699)
(-0.0091906004 0.044241998 -0.0283383)
(-0.0091971802 0.0442307 -0.028326999)
(-0.0092038 0.0442192 -0.028315799)
(-0.0092104599 0.044207599 -0.028304599)
(-0.0092171598 0.044195998 -0.0282936)
(-0.0092239203 0.044184301 -0.0282826)
(-0.0092307096 0.0441726 -0.028271601)
(-0.0092375502 0.044160701 -0.028260799)
(-0.0092444196 0.044148799 -0.0282501)
(-0.0092513403 0.0441368 -0.028239399)
(-0.0092583103 0.044124801 -0.028228801)
(-0.0092653101 0.0441126 -0.028218299)
(-0.0092723602 0.0441004 -0.0282079)
(-0.0092794402 0.0440882 -0.028197501)
(-0.0092865704 0.044075798 -0.028187299)
(-0.0092937397 0.0440634 -0.028177099)
(-0.00930095 0.044050898 -0.028167)
(-0.0093081901 0.0440384 -0.028156999)
(-0.0093154795 0.044025701 -0.0281471)
(-0.00932281 0.044013102 -0.0281373)
(-0.0093301702 0.044000302 -0.028127501)
(-0.0093375696 0.043987501 -0.028117901)
(-0.0093450099 0.043974601 -0.028108301)
(-0.0093524903 0.043961599 -0.028098799)
(-0.0093599996 0.043948598 -0.0280894)
(-0.00936756 0.043935601 -0.0280801)
(-0.0093751401 0.043922398 -0.028070901)
(-0.0093827704 0.0439092 -0.0280618)
(-0.0093904296 0.0438959 -0.028052799)
(-0.0093981205 0.043882601 -0.028043799)
(-0.0094058504 0.043869201 -0.028035)
(-0.0094136205 0.043855801 -0.028026201)
(-0.0094214203 0.043842301 -0.028017599)
(-0.0094292499 0.0438287 -0.028008999)
(-0.0094371196 0.043815099 -0.0280005)
(-0.00944502 0.043801401 -0.0279921)
(-0.0094450898 0.0438013 -0.032007899)
(-0.0094356602 0.043817598 -0.0319979)
(-0.0094262799 0.0438338 -0.031987801)
(-0.0094169397 0.043850001 -0.031977501)
(-0.00940766 0.043866102 -0.0319671)
(-0.0093984203 0.043882102 -0.031956501)
(-0.0093892403 0.043898001 -0.031945799)
(-0.0093801003 0.0439138 -0.031934999)
(-0.0093710199 0.043929599 -0.031924099)
(-0.0093619898 0.043945201 -0.031913001)
(-0.00935301 0.043960799 -0.031901799)
(-0.0093440805 0.043976199 -0.0318905)
(-0.0093352096 0.043991599 -0.031879101)
(-0.00932639 0.044006899 -0.0318675)
(-0.0093176197 0.044022001 -0.031855799)
(-0.00930891 0.0440371 -0.031844001)
(-0.0093002599 0.044052102 -0.031831998)
(-0.00929166 0.044066999 -0.031819999)
(-0.0092831198 0.0440818 -0.031807799)
(-0.0092746401 0.0440965 -0.031795502)
(-0.00926622 0.044111099 -0.0317831)
(-0.0092578596 0.044125602 -0.031770501)
(-0.0092495503 0.044139899 -0.031757899)
(-0.0092412997 0.044154201 -0.031745099)
(-0.0092331199 0.044168402 -0.031732202)
(-0.0092249904 0.044182502 -0.0317192)
(-0.0092169298 0.044196401 -0.031706098)
(-0.0092089297 0.0442103 -0.031692799)
(-0.0092009902 0.044224001 -0.0316795)
(-0.0091931196 0.044237699 -0.031665999)
(-0.0091853105 0.0442512 -0.031652499)
(-0.00917756 0.0442646 -0.031638801)
(-0.0091698803 0.044277899 -0.031624999)
(-0.0091622602 0.044291101 -0.0316111)
(-0.00915471 0.0443042 -0.0315971)
(-0.0091472203 0.044317201 -0.031583)
(-0.0091398004 0.044330001 -0.031568799)
(-0.0091324504 0.044342801 -0.031554401)
(-0.0091251703 0.0443554 -0.031539999)
(-0.0091179498 0.044367898 -0.0315255)
(-0.0091108 0.0443803 -0.031510901)
(-0.0091037303 0.0443925 -0.0314961)
(-0.0090967203 0.0444047 -0.0314813)
(-0.00908978 0.0444167 -0.031466398)
(-0.0090829097 0.044428602 -0.0314514)
(-0.0090761101 0.044440299 -0.031436201)
(-0.0090693897 0.044452 -0.031420998)
(-0.0090627298 0.0444635 -0.031405699)
(-0.00905615 0.0444749 -0.031390298)
(-0.00904964 0.044486199 -0.031374801)
(-0.0090432102 0.0444973 -0.031359199)
(-0.0090368502 0.044508401 -0.031343602)
(-0.00903056 0.044519201 -0.031327799)
(-0.0090243397 0.044530001 -0.031311899)
(-0.0090182098 0.044540599 -0.031296)
(-0.0090121403 0.044551101 -0.03128)
(-0.0090061501 0.044561502 -0.031263899)
(-0.0090002399 0.044571798 -0.0312477)
(-0.0089944098 0.044581901 -0.0312314)
(-0.0089886496 0.044591799 -0.031215001)
(-0.0089829704 0.044601701 -0.0311986)
(-0.0089773601 0.044611402 -0.031182099)
(-0.0089718401 0.044620998 -0.031165499)
(-0.00896639 0.044630401 -0.031148801)
(-0.00896155 0.044638801 -0.0311337)
(-0.0089572603 0.0446462 -0.031120099)
(-0.0089530097 0.044653598 -0.031106399)
(-0.0089488197 0.044660799 -0.0310927)
(-0.00894468 0.044668 -0.031078899)
(-0.0089405896 0.044675101 -0.031065101)
(-0.0089365495 0.0446821 -0.0310513)
(-0.00893257 0.044689 -0.0310374)
(-0.0089286398 0.044695798 -0.0310234)
(-0.0089247702 0.0447025 -0.0310094)
(-0.0089209499 0.044709101 -0.030995401)
(-0.0089171799 0.044715598 -0.0309813)
(-0.0089134602 0.044722099 -0.0309672)
(-0.0089098001 0.044728398 -0.030952999)
(-0.0089061903 0.044734702 -0.0309388)
(-0.0089026401 0.0447408 -0.030924501)
(-0.0088991402 0.044746902 -0.0309103)
(-0.0088956999 0.044752799 -0.0308959)
(-0.0088923099 0.0447587 -0.0308816)
(-0.0088889804 0.0447645 -0.0308671)
(-0.0088857003 0.0447702 -0.0308527)
(-0.0088824704 0.044775698 -0.030838201)
(-0.0088793002 0.044781201 -0.0308237)
(-0.0088761896 0.044786599 -0.030809199)
(-0.0088731302 0.0447919 -0.0307946)
(-0.0088701304 0.0447971 -0.0307799)
(-0.00886718 0.0448022 -0.030765301)
(-0.0088642901 0.044807199 -0.030750601)
(-0.0088614598 0.044812098 -0.030735901)
(-0.0088586798 0.0448169 -0.0307211)
(-0.0088559603 0.044821698 -0.030706299)
(-0.0088532995 0.044826299 -0.030691501)
(-0.00885069 0.044830799 -0.0306766)
(-0.0088481298 0.044835199 -0.030661801)
(-0.0088456403 0.044839501 -0.0306469)
(-0.0088432003 0.0448438 -0.0306319)
(-0.0088408198 0.044847898 -0.030617001)
(-0.0088384999 0.044851899 -0.030602001)
(-0.0088362303 0.0448558 -0.030587001)
(-0.0088340202 0.0448597 -0.0305719)
(-0.0088318698 0.044863399 -0.0305568)
(-0.0088297697 0.044867001 -0.0305418)
(-0.0088277403 0.0448705 -0.030526601)
(-0.0088257603 0.044874001 -0.0305115)
(-0.0088238297 0.044877298 -0.030496299)
(-0.0088219699 0.044880498 -0.030481201)
(-0.0088201603 0.044883698 -0.030466)
(-0.0088184197 0.044886701 -0.0304507)
(-0.0088167302 0.044889599 -0.030435501)
(-0.0088151004 0.044892401 -0.030420201)
(-0.00881352 0.044895198 -0.030404899)
(-0.0088120103 0.044897798 -0.0303897)
(-0.00881055 0.044900302 -0.0303743)
(-0.0088091502 0.044902701 -0.030359)
(-0.00880781 0.0449051 -0.0303437)
(-0.0088065304 0.044907302 -0.0303283)
(-0.0088053104 0.044909399 -0.0303129)
(-0.0088041397 0.044911399 -0.030297499)
(-0.0088030398 0.044913299 -0.030282101)
(-0.0088019902 0.044915099 -0.0302667)
(-0.0088010104 0.044916801 -0.0302513)
(-0.00880008 0.044918399 -0.030235801)
(-0.0087992102 0.044920001 -0.030220401)
(-0.0087983999 0.044921398 -0.0302049)
(-0.00879764 0.044922698 -0.030189499)
(-0.0087969499 0.044923902 -0.030174)
(-0.0087963203 0.044925001 -0.030158499)
(-0.0087957401 0.044925999 -0.030143)
(-0.0087952297 0.0449269 -0.030127499)
(-0.0087947696 0.044927601 -0.030112)
(-0.0087943701 0.044928301 -0.030096499)
(-0.0087940302 0.044928901 -0.030081)
(-0.0087937498 0.0449294 -0.030065499)
(-0.0087935301 0.044929799 -0.03005)
(-0.0087933699 0.0449301 -0.030034499)
(-0.0087932702 0.044930201 -0.0300189)
(-0.0087932404 0.044930302 -0.030009501)
(-0.0087932302 0.044930302 -0.02)
(-0.00879326 0.044930302 -0.019983999)
(-0.0087933503 0.0449301 -0.019967901)
(-0.0087935096 0.044929799 -0.0199519)
(-0.0087937303 0.0449294 -0.0199358)
(-0.0087940199 0.044928901 -0.0199198)
(-0.0087943701 0.044928301 -0.019903701)
(-0.0087947799 0.044927601 -0.019887701)
(-0.0087952502 0.0449268 -0.019871701)
(-0.0087957904 0.044925898 -0.0198556)
(-0.0087963901 0.044924799 -0.0198396)
(-0.0087970505 0.0449237 -0.0198236)
(-0.0087977797 0.0449224 -0.019807599)
(-0.0087985704 0.0449211 -0.019791599)
(-0.0087994197 0.044919599 -0.0197757)
(-0.0088003399 0.044918001 -0.0197597)
(-0.0088013196 0.044916298 -0.0197437)
(-0.0088023599 0.044914499 -0.0197278)
(-0.0088034701 0.044912599 -0.0197118)
(-0.0088046296 0.044910599 -0.0196959)
(-0.0088058598 0.044908401 -0.019680001)
(-0.00880716 0.044906199 -0.019664099)
(-0.0088085104 0.0449038 -0.0196482)
(-0.0088099297 0.044901401 -0.019632399)
(-0.0088114096 0.044898801 -0.0196165)
(-0.00881295 0.0448961 -0.019600701)
(-0.0088145602 0.044893399 -0.0195849)
(-0.0088162301 0.044890501 -0.019569101)
(-0.0088179596 0.044887502 -0.019553401)
(-0.0088197496 0.044884399 -0.0195376)
(-0.0088216001 0.044881199 -0.0195219)
(-0.0088235196 0.044877801 -0.019506199)
(-0.0088254996 0.0448744 -0.019490501)
(-0.0088275401 0.044870902 -0.019474801)
(-0.0088296402 0.044867199 -0.019459199)
(-0.0088318 0.0448635 -0.0194436)
(-0.0088340295 0.044859599 -0.019428)
(-0.0088363104 0.044855699 -0.019412501)
(-0.0088386601 0.044851601 -0.019397)
(-0.0088410703 0.0448475 -0.019381501)
(-0.0088435402 0.044843201 -0.019366)
(-0.0088460697 0.044838801 -0.019350501)
(-0.0088486597 0.044834301 -0.0193351)
(-0.0088513102 0.0448297 -0.019319801)
(-0.0088540204 0.044824999 -0.0193044)
(-0.0088568004 0.044820201 -0.019289101)
(-0.0088596297 0.044815298 -0.019273801)
(-0.0088625196 0.044810299 -0.0192586)
(-0.0088654803 0.044805199 -0.019243401)
(-0.0088684903 0.044799998 -0.019228199)
(-0.00887156 0.0447946 -0.019213)
(-0.0088747004 0.044789199 -0.0191979)
(-0.0088778902 0.0447837 -0.0191829)
(-0.0088811396 0.044778001 -0.0191678)
(-0.0088844504 0.044772301 -0.0191529)
(-0.0088878199 0.044766501 -0.0191379)
(-0.00889125 0.044760499 -0.019122999)
(-0.0088947397 0.044754501 -0.0191081)
(-0.0088982796 0.044748399 -0.019093299)
(-0.0089018904 0.0447421 -0.019078501)
(-0.0089055505 0.0447358 -0.019063801)
(-0.0089092702 0.0447293 -0.019049101)
(-0.0089130504 0.044722799 -0.019034401)
(-0.00891688 0.044716101 -0.019019799)
(-0.0089207804 0.044709399 -0.0190052)
(-0.0089247301 0.0447025 -0.018990699)
(-0.0089287404 0.044695601 -0.018976299)
(-0.0089328 0.044688601 -0.0189618)
(-0.0089369202 0.0446814 -0.018947501)
(-0.0089411 0.044674199 -0.018933101)
(-0.0089453403 0.044666901 -0.0189189)
(-0.00894963 0.044659398 -0.0189046)
(-0.0089539699 0.044651899 -0.0188905)
(-0.0089583797 0.0446443 -0.018876299)
(-0.0089628296 0.044636499 -0.0188623)
(-0.0089673502 0.044628698 -0.0188483)
(-0.0089719202 0.044620801 -0.0188343)
(-0.0089765396 0.044612799 -0.018820399)
(-0.0089812204 0.0446047 -0.0188065)
(-0.0089859497 0.044596501 -0.0187927)
(-0.0089907404 0.044588201 -0.018779)
(-0.0089955796 0.0445798 -0.018765301)
(-0.0090004802 0.0445714 -0.018751699)
(-0.0090054199 0.044562802 -0.0187381)
(-0.0090104304 0.044554099 -0.0187246)
(-0.0090154801 0.044545401 -0.0187112)
(-0.0090205902 0.044536501 -0.0186978)
(-0.0090257498 0.044527601 -0.0186844)
(-0.0090309596 0.044518501 -0.0186712)
(-0.0090362299 0.0445094 -0.018657999)
(-0.0090415496 0.044500198 -0.0186448)
(-0.0090469196 0.0444909 -0.0186317)
(-0.0090523399 0.044481501 -0.018618699)
(-0.0090578096 0.044472001 -0.0186058)
(-0.0090633295 0.044462498 -0.0185929)
(-0.00906891 0.044452801 -0.0185801)
(-0.0090745296 0.044443101 -0.018567299)
(-0.0090802005 0.044433299 -0.0185546)
(-0.00908593 0.044423301 -0.018541999)
(-0.0090917004 0.044413298 -0.018529501)
(-0.0090975203 0.0444033 -0.018517001)
(-0.0091033997 0.0443931 -0.018504599)
(-0.0091093201 0.044382799 -0.018492199)
(-0.0091152899 0.044372499 -0.0184799)
(-0.00912131 0.044362102 -0.0184677)
(-0.0091273701 0.0443516 -0.0184556)
(-0.0091334796 0.044341002 -0.018443501)
(-0.0091396403 0.044330299 -0.0184315)
(-0.0091458503 0.044319499 -0.018419599)
(-0.0091521097 0.0443087 -0.018407799)
(-0.0091584101 0.044297799 -0.018395999)
(-0.0091647599 0.044286799 -0.0183843)
(-0.0091711497 0.044275701 -0.0183727)
(-0.0091775898 0.0442646 -0.0183612)
(-0.0091840699 0.044253301 -0.0183497)
(-0.0091906004 0.044241998 -0.0183383)
(-0.0091971802 0.0442307 -0.018327)
(-0.0092038 0.0442192 -0.0183158)
(-0.0092104599 0.044207599 -0.018304599)
(-0.0092171598 0.044195998 -0.018293601)
(-0.0092239203 0.044184301 -0.0182826)
(-0.0092307096 0.0441726 -0.018271601)
(-0.0092375502 0.044160701 -0.018260799)
(-0.0092444196 0.044148799 -0.0182501)
(-0.0092513403 0.0441368 -0.018239399)
(-0.0092583103 0.044124801 -0.018228799)
(-0.0092653101 0.0441126 -0.018218299)
(-0.0092723602 0.0441004 -0.0182079)
(-0.0092794402 0.0440882 -0.018197499)
(-0.0092865704 0.044075798 -0.018187299)
(-0.0092937397 0.0440634 -0.0181771)
(-0.00930095 0.044050898 -0.018167)
(-0.0093081901 0.0440384 -0.018157)
(-0.0093154795 0.044025701 -0.0181471)
(-0.00932281 0.044013102 -0.0181373)
(-0.0093301702 0.044000302 -0.018127499)
(-0.0093375696 0.043987501 -0.018117899)
(-0.0093450099 0.043974601 -0.018108301)
(-0.0093524903 0.043961599 -0.0180988)
(-0.0093599996 0.043948598 -0.018089401)
(-0.00936756 0.043935601 -0.0180801)
(-0.0093751401 0.043922398 -0.018070901)
(-0.0093827704 0.0439092 -0.0180618)
(-0.0093904296 0.0438959 -0.0180528)
(-0.0093981205 0.043882601 -0.018043799)
(-0.0094058504 0.043869201 -0.018035)
(-0.0094136205 0.043855801 -0.018026199)
(-0.0094214203 0.043842301 -0.018017599)
(-0.0094292499 0.0438287 -0.018009)
(-0.0094371196 0.043815099 -0.0180005)
(-0.00944502 0.043801401 -0.0179921)
(-0.0094450898 0.0438013 -0.022007899)
(-0.0094356602 0.043817598 -0.021997901)
(-0.0094262799 0.0438338 -0.0219878)
(-0.0094169397 0.043850001 -0.021977499)
(-0.00940766 0.043866102 -0.0219671)
(-0.0093984203 0.043882102 -0.0219565)
(-0.0093892403 0.043898001 -0.021945801)
(-0.0093801003 0.0439138 -0.021934999)
(-0.0093710199 0.043929599 -0.021924101)
(-0.0093619898 0.043945201 -0.021912999)
(-0.00935301 0.043960799 -0.021901799)
(-0.0093440805 0.043976199 -0.021890501)
(-0.0093352096 0.043991599 -0.021879099)
(-0.00932639 0.044006899 -0.021867501)
(-0.0093176197 0.044022001 -0.021855799)
(-0.00930891 0.0440371 -0.021844)
(-0.0093002599 0.044052102 -0.021832)
(-0.00929166 0.044066999 -0.021819999)
(-0.0092831198 0.0440818 -0.021807799)
(-0.0092746401 0.0440965 -0.0217955)
(-0.00926622 0.044111099 -0.0217831)
(-0.0092578596 0.044125602 -0.0217705)
(-0.0092495503 0.044139899 -0.021757901)
(-0.0092412997 0.044154201 -0.021745101)
(-0.0092331199 0.044168402 -0.0217322)
(-0.0092249904 0.044182502 -0.021719201)
(-0.0092169298 0.044196401 -0.021706101)
(-0.0092089297 0.0442103 -0.021692799)
(-0.0092009902 0.044224001 -0.0216795)
(-0.0091931196 0.044237699 -0.021666)
(-0.0091853105 0.0442512 -0.021652499)
(-0.00917756 0.0442646 -0.021638799)
(-0.0091698803 0.044277899 -0.021624999)
(-0.0091622602 0.044291101 -0.0216111)
(-0.00915471 0.0443042 -0.0215971)
(-0.0091472203 0.044317201 -0.021583)
(-0.0091398004 0.044330001 -0.021568799)
(-0.0091324504 0.044342801 -0.021554399)
(-0.0091251703 0.0443554 -0.021539999)
(-0.0091179498 0.044367898 -0.0215255)
(-0.0091108 0.0443803 -0.021510901)
(-0.0091037303 0.0443925 -0.0214961)
(-0.0090967203 0.0444047 -0.0214813)
(-0.00908978 0.0444167 -0.0214664)
(-0.0090829097 0.044428602 -0.021451401)
(-0.0090761101 0.044440299 -0.0214362)
(-0.0090693897 0.044452 -0.021421)
(-0.0090627298 0.0444635 -0.021405701)
(-0.00905615 0.0444749 -0.0213903)
(-0.00904964 0.044486199 -0.021374799)
(-0.0090432102 0.0444973 -0.0213592)
(-0.0090368502 0.044508401 -0.0213436)
(-0.00903056 0.044519201 -0.021327799)
(-0.0090243397 0.044530001 -0.0213119)
(-0.0090182098 0.044540599 -0.021296)
(-0.0090121403 0.044551101 -0.02128)
(-0.0090061501 0.044561502 -0.021263899)
(-0.0090002399 0.044571798 -0.0212477)
(-0.0089944098 0.044581901 -0.0212314)
(-0.0089886496 0.044591799 -0.021214999)
(-0.0089829704 0.044601701 -0.021198601)
(-0.0089773601 0.044611402 -0.021182099)
(-0.0089718401 0.044620998 -0.021165499)
(-0.00896639 0.044630401 -0.021148801)
(-0.00896155 0.044638801 -0.0211337)
(-0.0089572603 0.0446462 -0.021120099)
(-0.0089530097 0.044653598 -0.0211064)
(-0.0089488197 0.044660799 -0.0210927)
(-0.00894468 0.044668 -0.0210789)
(-0.0089405896 0.044675101 -0.021065099)
(-0.0089365495 0.0446821 -0.021051301)
(-0.00893257 0.044689 -0.0210374)
(-0.0089286398 0.044695798 -0.0210234)
(-0.0089247702 0.0447025 -0.0210094)
(-0.0089209499 0.044709101 -0.020995401)
(-0.0089171799 0.044715598 -0.020981301)
(-0.0089134602 0.044722099 -0.0209672)
(-0.0089098001 0.044728398 -0.020953)
(-0.0089061903 0.044734702 -0.020938801)
(-0.0089026401 0.0447408 -0.020924499)
(-0.0088991402 0.044746902 -0.0209103)
(-0.0088956999 0.044752799 -0.0208959)
(-0.0088923099 0.0447587 -0.020881601)
(-0.0088889804 0.0447645 -0.0208671)
(-0.0088857003 0.0447702 -0.0208527)
(-0.0088824704 0.044775698 -0.020838199)
(-0.0088793002 0.044781201 -0.0208237)
(-0.0088761896 0.044786599 -0.0208092)
(-0.0088731302 0.0447919 -0.0207946)
(-0.0088701304 0.0447971 -0.0207799)
(-0.00886718 0.0448022 -0.020765301)
(-0.0088642901 0.044807199 -0.020750601)
(-0.0088614598 0.044812098 -0.020735901)
(-0.0088586798 0.0448169 -0.0207211)
(-0.0088559603 0.044821698 -0.0207063)
(-0.0088532995 0.044826299 -0.020691499)
(-0.00885069 0.044830799 -0.0206766)
(-0.0088481298 0.044835199 -0.020661799)
(-0.0088456403 0.044839501 -0.0206469)
(-0.0088432003 0.0448438 -0.0206319)
(-0.0088408198 0.044847898 -0.020617001)
(-0.0088384999 0.044851899 -0.020602001)
(-0.0088362303 0.0448558 -0.020586999)
(-0.0088340202 0.0448597 -0.020571901)
(-0.0088318698 0.044863399 -0.0205568)
(-0.0088297697 0.044867001 -0.0205418)
(-0.0088277403 0.0448705 -0.020526599)
(-0.0088257603 0.044874001 -0.020511501)
(-0.0088238297 0.044877298 -0.020496299)
(-0.0088219699 0.044880498 -0.020481201)
(-0.0088201603 0.044883698 -0.020466)
(-0.0088184197 0.044886701 -0.0204507)
(-0.0088167302 0.044889599 -0.020435501)
(-0.0088151004 0.044892401 -0.020420199)
(-0.00881352 0.044895198 -0.020404899)
(-0.0088120103 0.044897798 -0.0203897)
(-0.00881055 0.044900302 -0.0203743)
(-0.0088091502 0.044902701 -0.020359)
(-0.00880781 0.0449051 -0.0203437)
(-0.0088065304 0.044907302 -0.0203283)
(-0.0088053104 0.044909399 -0.0203129)
(-0.0088041397 0.044911399 -0.020297499)
(-0.0088030398 0.044913299 -0.020282101)
(-0.0088019902 0.044915099 -0.020266701)
(-0.0088010104 0.044916801 -0.0202513)
(-0.00880008 0.044918399 -0.020235799)
(-0.0087992102 0.044920001 -0.020220401)
(-0.0087983999 0.044921398 -0.0202049)
(-0.00879764 0.044922698 -0.020189499)
(-0.0087969499 0.044923902 -0.020174)
(-0.0087963203 0.044925001 -0.020158499)
(-0.0087957401 0.044925999 -0.020143)
(-0.0087952297 0.0449269 -0.020127499)
(-0.0087947696 0.044927601 -0.020112)
(-0.0087943701 0.044928301 -0.020096499)
(-0.0087940302 0.044928901 -0.020081)
(-0.0087937498 0.0449294 -0.020065499)
(-0.0087935301 0.044929799 -0.02005)
(-0.0087933699 0.0449301 -0.020034499)
(-0.0087932702 0.044930201 -0.0200189)
(-0.0087932404 0.044930302 -0.020009501)
(-0.0087932302 0.044930302 -0.0099999998)
(-0.00879326 0.044930302 -0.0099839503)
(-0.0087933503 0.0449301 -0.0099678999)
(-0.0087935096 0.044929799 -0.0099518597)
(-0.0087937303 0.0449294 -0.0099358102)
(-0.0087940199 0.044928901 -0.0099197701)
(-0.0087943701 0.044928301 -0.0099037299)
(-0.0087947799 0.044927601 -0.0098877)
(-0.0087952502 0.0449268 -0.00987167)
(-0.0087957904 0.044925898 -0.0098556504)
(-0.0087963901 0.044924799 -0.0098396298)
(-0.0087970505 0.0449237 -0.0098236296)
(-0.0087977797 0.0449224 -0.0098076304)
(-0.0087985704 0.0449211 -0.0097916396)
(-0.0087994197 0.044919599 -0.0097756498)
(-0.0088003399 0.044918001 -0.0097596804)
(-0.0088013196 0.044916298 -0.0097437203)
(-0.0088023599 0.044914499 -0.0097277798)
(-0.0088034701 0.044912599 -0.0097118402)
(-0.0088046296 0.044910599 -0.0096959202)
(-0.0088058598 0.044908401 -0.0096800104)
(-0.00880716 0.044906199 -0.0096641202)
(-0.0088085104 0.0449038 -0.0096482504)
(-0.0088099297 0.044901401 -0.00963239)
(-0.0088114096 0.044898801 -0.0096165398)
(-0.00881295 0.0448961 -0.0096007204)
(-0.0088145602 0.044893399 -0.0095849102)
(-0.0088162301 0.044890501 -0.0095691197)
(-0.0088179596 0.044887502 -0.0095533598)
(-0.0088197496 0.044884399 -0.0095376102)
(-0.0088216001 0.044881199 -0.0095218904)
(-0.0088235196 0.044877801 -0.00950618)
(-0.0088254996 0.0448744 -0.0094905104)
(-0.0088275401 0.044870902 -0.0094748503)
(-0.0088296402 0.044867199 -0.0094592199)
(-0.0088318 0.0448635 -0.00944361)
(-0.0088340295 0.044859599 -0.0094280299)
(-0.0088363104 0.044855699 -0.0094124796)
(-0.0088386601 0.044851601 -0.0093969498)
(-0.0088410703 0.0448475 -0.00938146)
(-0.0088435402 0.044843201 -0.0093659898)
(-0.0088460697 0.044838801 -0.0093505504)
(-0.0088486597 0.044834301 -0.0093351398)
(-0.0088513102 0.0448297 -0.0093197599)
(-0.0088540204 0.044824999 -0.0093044201)
(-0.0088568004 0.044820201 -0.0092890998)
(-0.0088596297 0.044815298 -0.0092738196)
(-0.0088625196 0.044810299 -0.0092585804)
(-0.0088654803 0.044805199 -0.0092433598)
(-0.0088684903 0.044799998 -0.0092281904)
(-0.00887156 0.0447946 -0.0092130499)
(-0.0088747004 0.044789199 -0.0091979401)
(-0.0088778902 0.0447837 -0.0091828797)
(-0.0088811396 0.044778001 -0.00916785)
(-0.0088844504 0.044772301 -0.0091528604)
(-0.0088878199 0.044766501 -0.0091379099)
(-0.00889125 0.044760499 -0.0091230003)
(-0.0088947397 0.044754501 -0.0091081299)
(-0.0088982796 0.044748399 -0.0090933004)
(-0.0089018904 0.0447421 -0.0090785204)
(-0.0089055505 0.0447358 -0.0090637701)
(-0.0089092702 0.0447293 -0.0090490803)
(-0.0089130504 0.044722799 -0.0090344204)
(-0.00891688 0.044716101 -0.0090198098)
(-0.0089207804 0.044709399 -0.0090052504)
(-0.0089247301 0.0447025 -0.0089907302)
(-0.0089287404 0.044695601 -0.0089762602)
(-0.0089328 0.044688601 -0.0089618396)
(-0.0089369202 0.0446814 -0.0089474702)
(-0.0089411 0.044674199 -0.00893314)
(-0.0089453403 0.044666901 -0.0089188702)
(-0.00894963 0.044659398 -0.0089046396)
(-0.0089539699 0.044651899 -0.0088904696)
(-0.0089583797 0.0446443 -0.0088763498)
(-0.0089628296 0.044636499 -0.0088622803)
(-0.0089673502 0.044628698 -0.0088482602)
(-0.0089719202 0.044620801 -0.0088342996)
(-0.0089765396 0.044612799 -0.0088203903)
(-0.0089812204 0.0446047 -0.0088065397)
(-0.0089859497 0.044596501 -0.0087927403)
(-0.0089907404 0.044588201 -0.0087789996)
(-0.0089955796 0.0445798 -0.00876531)
(-0.0090004802 0.0445714 -0.0087516904)
(-0.0090054199 0.044562802 -0.0087381201)
(-0.0090104304 0.044554099 -0.0087246103)
(-0.0090154801 0.044545401 -0.0087111602)
(-0.0090205902 0.044536501 -0.0086977696)
(-0.0090257498 0.044527601 -0.0086844396)
(-0.0090309596 0.044518501 -0.0086711701)
(-0.0090362299 0.0445094 -0.0086579695)
(-0.0090415496 0.044500198 -0.0086448202)
(-0.0090469196 0.0444909 -0.0086317398)
(-0.0090523399 0.044481501 -0.0086187301)
(-0.0090578096 0.044472001 -0.0086057698)
(-0.0090633295 0.044462498 -0.0085928896)
(-0.00906891 0.044452801 -0.00858007)
(-0.0090745296 0.044443101 -0.0085673099)
(-0.0090802005 0.044433299 -0.0085546197)
(-0.00908593 0.044423301 -0.0085420003)
(-0.0090917004 0.044413298 -0.0085294498)
(-0.0090975203 0.0444033 -0.0085169701)
(-0.0091033997 0.0443931 -0.00850455)
(-0.0091093201 0.044382799 -0.0084922099)
(-0.0091152899 0.044372499 -0.0084799305)
(-0.00912131 0.044362102 -0.0084677301)
(-0.0091273701 0.0443516 -0.0084555997)
(-0.0091334796 0.044341002 -0.0084435297)
(-0.0091396403 0.044330299 -0.0084315501)
(-0.0091458503 0.044319499 -0.0084196301)
(-0.0091521097 0.0443087 -0.0084077902)
(-0.0091584101 0.044297799 -0.0083960202)
(-0.0091647599 0.044286799 -0.0083843302)
(-0.0091711497 0.044275701 -0.0083727203)
(-0.0091775898 0.0442646 -0.0083611701)
(-0.0091840699 0.044253301 -0.0083497101)
(-0.0091906004 0.044241998 -0.0083383201)
(-0.0091971802 0.0442307 -0.0083270101)
(-0.0092038 0.0442192 -0.0083157802)
(-0.0092104599 0.044207599 -0.0083046304)
(-0.0092171598 0.044195998 -0.0082935505)
(-0.0092239203 0.044184301 -0.0082825599)
(-0.0092307096 0.0441726 -0.0082716504)
(-0.0092375502 0.044160701 -0.0082608098)
(-0.0092444196 0.044148799 -0.0082500596)
(-0.0092513403 0.0441368 -0.0082393903)
(-0.0092583103 0.044124801 -0.0082288003)
(-0.0092653101 0.0441126 -0.0082182903)
(-0.0092723602 0.0441004 -0.0082078697)
(-0.0092794402 0.0440882 -0.0081975302)
(-0.0092865704 0.044075798 -0.0081872698)
(-0.0092937397 0.0440634 -0.0081770997)
(-0.00930095 0.044050898 -0.00816702)
(-0.0093081901 0.0440384 -0.0081570204)
(-0.0093154795 0.044025701 -0.0081471)
(-0.00932281 0.044013102 -0.0081372699)
(-0.0093301702 0.044000302 -0.0081275301)
(-0.0093375696 0.043987501 -0.0081178797)
(-0.0093450099 0.043974601 -0.0081083104)
(-0.0093524903 0.043961599 -0.0080988295)
(-0.0093599996 0.043948598 -0.0080894502)
(-0.00936756 0.043935601 -0.0080801398)
(-0.0093751401 0.043922398 -0.0080709299)
(-0.0093827704 0.0439092 -0.0080618104)
(-0.0093904296 0.0438959 -0.0080527803)
(-0.0093981205 0.043882601 -0.0080438396)
(-0.0094058504 0.043869201 -0.0080350004)
(-0.0094136205 0.043855801 -0.0080262404)
(-0.0094214203 0.043842301 -0.00801758)
(-0.0094292499 0.0438287 -0.0080089998)
(-0.0094371196 0.043815099 -0.0080005201)
(-0.00944502 0.043801401 -0.00799214)
(-0.0094450898 0.0438013 -0.0120079)
(-0.0094356602 0.043817598 -0.0119979)