/*--------------------------------*- C++ -*----------------------------------*\
| =========                 |                                                 |
| \\      /  F ield         | OpenFOAM: The Open Source CFD Toolbox           |
|  \\    /   O peration     | Version:  2206                                  |
|   \\  /    A nd           | Website:  www.openfoam.com                      |
|    \\/     M anipulation  |                                                 |
\*---------------------------------------------------------------------------*/
// * * * * * * * * * * * * * * * * * * * * * * * * * * * * * * * * * * * * * //
FoamFile
{
    version         2;
    format          ascii;
    class           dictionary;
    object          controlDict;
}

application     adjointOptimisationFoam;

startFrom       latestTime;

startTime       0;

stopAt          endTime;

endTime         0.0001;

nOptimisationCycles 1;

deltaT          0.0001;

writeControl    timeStep;

writeInterval   50000000;

purgeWrite      0;

writeFormat     binary;

writePrecision  16;

writeCompression off;

timeFormat      general;

timePrecision   6;

runTimeModifiable yes;

adjustTimeStep  false;

maxCo           200;

functions
{
}


// ************************************************************************* //
