/*--------------------------------*- C++ -*----------------------------------*\
  =========                 |
  \\      /  F ield         | OpenFOAM: The Open Source CFD Toolbox
   \\    /   O peration     | Website:  https://openfoam.org
    \\  /    A nd           | Version:  8.0
     \\/     M anipulation  |
\*---------------------------------------------------------------------------*/
FoamFile
{
    version         2;
    format          ascii;
    class           dictionary;
    object          mirrorMeshDict;
}
// * * * * * * * * * * * * * * * * * * * * * * * * * * * * * * * * * * * * * //

planeType       pointAndNormal;

pointAndNormalDict
{
    point       ( 0 4 0 );
    vector    ( 0 1 0 );
}

planeEquationDict
{
    a               0;
    b               1;
    c               0;
    d               0;
}

embeddedPointsDict
{
    point1          ( 0 0 0 );
    point2          ( 1 0 0 );
    point3          ( 0 0 1 );
}

planeTolerance  0.001;


// ************************************************************************* //
