/*--------------------------------*- C++ -*----------------------------------*\
| =========                 |                                                 |
| \\      /  F ield         | OpenFOAM: The Open Source CFD Toolbox           |
|  \\    /   O peration     | Version:  v2306                                 |
|   \\  /    A nd           | Website:  www.openfoam.com                      |
|    \\/     M anipulation  |                                                 |
\*---------------------------------------------------------------------------*/
FoamFile
{
    version     2.0;
    format      ascii;
    class       dictionary;
    object      blockMeshDict;
}
scale 1;

vertices
( 
    ( -23.872 -11 -0.3085 )
    ( 59.128 -11 -0.3085 )
    ( 59.128 0 -0.3085 )
    ( -23.872 0 -0.3085 )
    ( -23.872 -11 9.1915 )
    ( 59.128 -11 9.1915 )
    ( 59.128 0 9.1915 )
    ( -23.872 0 9.1915 )
);
//83 11 9.5

blocks
(
    hex ( 0 1 2 3 4 5 6 7 ) (  166 22 19 ) simpleGrading ( 1 1 1 )
);

edges
(
);

boundary
(
    XMin
    {
        type patch;
        faces ( ( 0 4 7 3 ) );
    }
    XMax
    {
        type patch;
        faces ( ( 1 2 6 5 ) );
    }
    YMin
    {
        type symmetry;
        faces ( ( 0 1 5 4 ) );
    }
    YMax
    {
        type symmetry;
        faces ( ( 3 7 6 2 ) );
    }
    ZMin
    {
        type wall;
        faces ( ( 0 3 2 1 ) ) ;
    }
    ZMax
    {
        type symmetry;
        faces ( ( 4 5 6 7 ) );
    }
);
