/*--------------------------------*- C++ -*----------------------------------*\
| =========                 |                                                 |
| \\      /  F ield         | foam-extend: Open Source CFD                    |
|  \\    /   O peration     | Version:     4.1                                |
|   \\  /    A nd           | Web:         http://www.foam-extend.org         |
|    \\/     M anipulation  |                                                 |
\*---------------------------------------------------------------------------*/
FoamFile
{
    version     2.0;
    format      ascii;
    class       dictionary;
    object      viscoelasticProperties;
}
// * * * * * * * * * * * * * * * * * * * * * * * * * * * * * * * * * * * * * //

rheology
{
    type    multiMode;

    models
    (
        M1
        {
            type        GiesekusIBSD;
            rho         rho [1 -3 0 0 0 0 0] 1200.0;
            etaS        etaS [1 -1 -1 0 0 0 0] 0.0;
            etaStab     320.0;
            etaP        etaP [1 -1 -1 0 0 0 0] 320.0;
            lambda      lambda [0 0 1 0 0 0 0] 0.0008;
            alpha       alpha [0 0 0 0 0 0 0] 0.1;
        }
        M2
        {
            type        GiesekusIBSD;
            rho         rho [1 -3 0 0 0 0 0] 1200.0;
            etaS        etaS [1 -1 -1 0 0 0 0] 0.0;
            etaStab     1625.0;
            etaP        etaP [1 -1 -1 0 0 0 0] 1625.0;
            lambda      lambda [0 0 1 0 0 0 0] 0.0065;
            alpha       alpha [0 0 0 0 0 0 0] 0.6;
        }
        M3
        {
            type        GiesekusIBSD;
            rho         rho [1 -3 0 0 0 0 0] 1200.0;
            etaS        etaS [1 -1 -1 0 0 0 0] 0.0;
            etaStab     3000.0;
            etaP        etaP [1 -1 -1 0 0 0 0] 3000.0;
            lambda      lambda [0 0 1 0 0 0 0] 0.06;
            alpha       alpha [0 0 0 0 0 0 0] 0.001;
        }
        M4
        {
            type        GiesekusIBSD;
            rho         rho [1 -3 0 0 0 0 0] 1200.0;
            etaS        etaS [1 -1 -1 0 0 0 0] 0.0;
            etaStab     2400.0;
            etaP        etaP [1 -1 -1 0 0 0 0] 2400.0;
            lambda      lambda [0 0 1 0 0 0 0] 0.3;
            alpha       alpha [0 0 0 0 0 0 0] 0.007;
        }
        M5
        {
            type        GiesekusIBSD;
            rho         rho [1 -3 0 0 0 0 0] 1200.0;
            etaS        etaS [1 -1 -1 0 0 0 0] 0.0;
            etaStab     1500.0;
            etaP        etaP [1 -1 -1 0 0 0 0] 1500.0;
            lambda      lambda [0 0 1 0 0 0 0] 2.5;
            alpha       alpha [0 0 0 0 0 0 0] 0.0008;
        }
    );
}

// * * * * * * * * * * * * * * * * * * * * * * * * * * * * * * * * * * * * * //
